version 2
run _10UsersSetupWRR-0-20201130-19:14:59-1288
attr configname _10UsersSetupWRR
attr datetime 20201130-19:14:59
attr experiment _10UsersSetupWRR
attr inifile omnetpp.ini
attr iterationvars ""
attr iterationvarsf ""
attr measurement ""
attr network Network
attr processid 1288
attr repetition 0
attr replication #0
attr resultdir results
attr runnumber 0
attr seedset 0
param **.algorithm "\"wrr\""
param **.usersCount 10
param **.channelsCount 25
param **.networkLoad 0.9
param **.scheduler.generateInterval 1ms
param **.gen.generateInterval "triang(0.9ms, 1.0ms, 1.1ms)"
param **.user[0].radioLinkQuality 1
param **.user[1].radioLinkQuality 2
param **.user[2].radioLinkQuality 4
param **.user[3].radioLinkQuality 8
param **.user[4].radioLinkQuality 1
param **.user[5].radioLinkQuality 2
param **.user[6].radioLinkQuality 4
param **.user[7].radioLinkQuality 8
param **.user[8].radioLinkQuality 1
param **.user[9].radioLinkQuality 2
param **.user[0].gen.startingMessage 0
param **.user[1].gen.startingMessage 100
param **.user[2].gen.startingMessage 200
param **.user[3].gen.startingMessage 300
param **.user[4].gen.startingMessage 400
param **.user[5].gen.startingMessage 500
param **.user[6].gen.startingMessage 600
param **.user[7].gen.startingMessage 700
param **.user[8].gen.startingMessage 800
param **.user[9].gen.startingMessage 900

vector 0 Network.user[0].queue "Queue before scheduler's run." ETV
vector 1 Network.user[1].queue "Queue before scheduler's run." ETV
vector 2 Network.user[2].queue "Queue before scheduler's run." ETV
vector 3 Network.user[3].queue "Queue before scheduler's run." ETV
vector 4 Network.user[4].queue "Queue before scheduler's run." ETV
vector 5 Network.user[5].queue "Queue before scheduler's run." ETV
vector 6 Network.user[6].queue "Queue before scheduler's run." ETV
vector 7 Network.user[7].queue "Queue before scheduler's run." ETV
vector 8 Network.user[8].queue "Queue before scheduler's run." ETV
vector 9 Network.user[9].queue "Queue before scheduler's run." ETV
vector 10 Network.scheduler "Scheduler free channels" ETV
vector 11 Network.scheduler "Total users' queues lengths" ETV
vector 12 Network.user[0].queue "Queue after scheduler's run." ETV
vector 13 Network.user[1].queue "Queue after scheduler's run." ETV
vector 14 Network.user[2].queue "Queue after scheduler's run." ETV
vector 15 Network.user[3].queue "Queue after scheduler's run." ETV
vector 16 Network.user[4].queue "Queue after scheduler's run." ETV
vector 17 Network.user[5].queue "Queue after scheduler's run." ETV
vector 18 Network.user[6].queue "Queue after scheduler's run." ETV
vector 19 Network.user[7].queue "Queue after scheduler's run." ETV
vector 20 Network.user[8].queue "Queue after scheduler's run." ETV
vector 21 Network.user[9].queue "Queue after scheduler's run." ETV
vector 22 Network.sink lifetime:vector ETV
attr interpolationmode none
attr title "lifetime of arrived jobs, vector"
attr unit s
0	42	0.001	2
0	136	0.002	2
0	230	0.003	2
0	326	0.004	2
0	432	0.005	3
0	537	0.006	2
0	638	0.007	2
0	738	0.008	2
0	842	0.009	3
0	945	0.01	2
0	1043	0.011	2
0	1140	0.012	2
0	1242	0.013	3
0	1350	0.014	2
0	1455	0.015	2
0	1553	0.016	2
0	1652	0.017	3
0	1753	0.018	2
0	1855	0.019	2
0	1957	0.02	2
0	2061	0.021	3
0	2163	0.022	2
0	2265	0.023	2
0	2365	0.024	2
0	2459	0.025	2
0	2561	0.026	3
0	2670	0.027	2
0	2775	0.028	2
0	2871	0.029	2
0	2971	0.03	3
0	3076	0.031	2
0	3177	0.032	2
0	3277	0.033	2
0	3381	0.034	3
0	3482	0.035	2
0	3582	0.036	2
0	3683	0.037	2
0	3785	0.038	3
0	3886	0.039	2
0	3987	0.04	2
0	4092	0.041	2
0	4197	0.042	3
0	4296	0.043	2
0	4392	0.044	2
0	4492	0.045	2
0	4600	0.046	2
0	4704	0.047	3
0	4802	0.048	2
0	4902	0.049	2
0	5004	0.05	2
0	5106	0.051	3
0	5206	0.052	2
0	5307	0.053	2
0	5410	0.054	2
0	5514	0.055	3
0	5615	0.056	2
0	5715	0.057	2
0	5814	0.058	2
0	5920	0.059	3
0	6023	0.06	2
0	6121	0.061	2
0	6223	0.062	2
0	6326	0.063	3
0	6427	0.064	2
0	6527	0.065	2
0	6626	0.066	2
0	6731	0.067	2
0	6837	0.068	3
0	6937	0.069	2
0	7031	0.07	2
0	7133	0.071	2
0	7242	0.072	3
0	7343	0.073	2
0	7441	0.074	2
0	7541	0.075	2
0	7645	0.076	3
0	7746	0.077	2
0	7845	0.078	2
0	7948	0.079	2
0	8053	0.08	3
0	8154	0.081	2
0	8254	0.082	2
0	8353	0.083	2
0	8457	0.084	3
0	8561	0.085	2
0	8660	0.086	2
0	8762	0.087	2
0	8867	0.088	3
0	8968	0.089	2
0	9066	0.09	2
0	9166	0.091	2
0	9269	0.092	2
0	9372	0.093	3
0	9476	0.094	2
0	9574	0.095	2
0	9672	0.096	2
0	9777	0.097	3
0	9883	0.098	2
0	9982	0.099	2
1	43	0.001	2
1	137	0.002	2
1	231	0.003	2
1	327	0.004	2
1	433	0.005	3
1	538	0.006	2
1	639	0.007	2
1	739	0.008	2
1	843	0.009	3
1	946	0.01	2
1	1044	0.011	2
1	1141	0.012	2
1	1243	0.013	2
1	1351	0.014	3
1	1456	0.015	2
1	1554	0.016	2
1	1653	0.017	2
1	1754	0.018	3
1	1856	0.019	2
1	1958	0.02	2
1	2062	0.021	2
1	2164	0.022	3
1	2266	0.023	2
1	2366	0.024	2
1	2460	0.025	2
1	2562	0.026	2
1	2671	0.027	3
1	2776	0.028	2
1	2872	0.029	2
1	2972	0.03	2
1	3077	0.031	3
1	3178	0.032	2
1	3278	0.033	2
1	3382	0.034	2
1	3483	0.035	2
1	3583	0.036	3
1	3684	0.037	2
1	3786	0.038	2
1	3887	0.039	2
1	3988	0.04	3
1	4093	0.041	2
1	4198	0.042	2
1	4297	0.043	2
1	4393	0.044	3
1	4493	0.045	2
1	4601	0.046	2
1	4705	0.047	2
1	4803	0.048	2
1	4903	0.049	3
1	5005	0.05	2
1	5107	0.051	2
1	5207	0.052	2
1	5308	0.053	3
1	5411	0.054	2
1	5515	0.055	2
1	5616	0.056	2
1	5716	0.057	3
1	5815	0.058	2
1	5921	0.059	2
1	6024	0.06	2
1	6122	0.061	2
1	6224	0.062	3
1	6327	0.063	2
1	6428	0.064	2
1	6528	0.065	2
1	6627	0.066	3
1	6732	0.067	2
1	6838	0.068	2
1	6938	0.069	2
1	7032	0.07	2
1	7134	0.071	3
1	7243	0.072	2
1	7344	0.073	2
1	7442	0.074	2
1	7542	0.075	3
1	7646	0.076	2
1	7747	0.077	2
1	7846	0.078	2
1	7949	0.079	3
1	8054	0.08	2
1	8155	0.081	2
1	8255	0.082	2
1	8354	0.083	2
1	8458	0.084	3
1	8562	0.085	2
1	8661	0.086	2
1	8763	0.087	2
1	8868	0.088	3
1	8969	0.089	2
1	9067	0.09	2
1	9167	0.091	2
1	9270	0.092	2
1	9373	0.093	3
1	9477	0.094	2
1	9575	0.095	2
1	9673	0.096	2
1	9778	0.097	3
1	9884	0.098	2
1	9983	0.099	2
2	44	0.001	2
2	138	0.002	2
2	232	0.003	2
2	328	0.004	2
2	434	0.005	2
2	539	0.006	3
2	640	0.007	2
2	740	0.008	2
2	844	0.009	2
2	947	0.01	2
2	1045	0.011	3
2	1142	0.012	2
2	1244	0.013	2
2	1352	0.014	2
2	1457	0.015	2
2	1555	0.016	3
2	1654	0.017	2
2	1755	0.018	2
2	1857	0.019	2
2	1959	0.02	2
2	2063	0.021	3
2	2165	0.022	2
2	2267	0.023	2
2	2367	0.024	2
2	2461	0.025	2
2	2563	0.026	3
2	2672	0.027	2
2	2777	0.028	2
2	2873	0.029	2
2	2973	0.03	2
2	3078	0.031	3
2	3179	0.032	2
2	3279	0.033	2
2	3383	0.034	2
2	3484	0.035	2
2	3584	0.036	3
2	3685	0.037	2
2	3787	0.038	2
2	3888	0.039	2
2	3989	0.04	2
2	4094	0.041	3
2	4199	0.042	2
2	4298	0.043	2
2	4394	0.044	2
2	4494	0.045	2
2	4602	0.046	3
2	4706	0.047	2
2	4804	0.048	2
2	4904	0.049	2
2	5006	0.05	2
2	5108	0.051	3
2	5208	0.052	2
2	5309	0.053	2
2	5412	0.054	2
2	5516	0.055	2
2	5617	0.056	2
2	5717	0.057	3
2	5816	0.058	2
2	5922	0.059	2
2	6025	0.06	2
2	6123	0.061	2
2	6225	0.062	3
2	6328	0.063	2
2	6429	0.064	2
2	6529	0.065	2
2	6628	0.066	2
2	6733	0.067	3
2	6839	0.068	2
2	6939	0.069	2
2	7033	0.07	2
2	7135	0.071	2
2	7244	0.072	3
2	7345	0.073	2
2	7443	0.074	2
2	7543	0.075	2
2	7647	0.076	2
2	7748	0.077	3
2	7847	0.078	2
2	7950	0.079	2
2	8055	0.08	2
2	8156	0.081	2
2	8256	0.082	3
2	8355	0.083	2
2	8459	0.084	2
2	8563	0.085	2
2	8662	0.086	2
2	8764	0.087	3
2	8869	0.088	2
2	8970	0.089	2
2	9068	0.09	2
2	9168	0.091	2
2	9271	0.092	3
2	9374	0.093	2
2	9478	0.094	2
2	9576	0.095	2
2	9674	0.096	2
2	9779	0.097	3
2	9885	0.098	2
2	9984	0.099	2
3	45	0.001	2
3	139	0.002	2
3	233	0.003	2
3	329	0.004	2
3	435	0.005	2
3	540	0.006	2
3	641	0.007	3
3	741	0.008	2
3	845	0.009	2
3	948	0.01	2
3	1046	0.011	2
3	1143	0.012	2
3	1245	0.013	3
3	1353	0.014	2
3	1458	0.015	2
3	1556	0.016	2
3	1655	0.017	2
3	1756	0.018	2
3	1858	0.019	2
3	1960	0.02	3
3	2064	0.021	2
3	2166	0.022	2
3	2268	0.023	2
3	2368	0.024	2
3	2462	0.025	2
3	2564	0.026	3
3	2673	0.027	2
3	2778	0.028	2
3	2874	0.029	2
3	2974	0.03	2
3	3079	0.031	2
3	3180	0.032	2
3	3280	0.033	3
3	3384	0.034	2
3	3485	0.035	2
3	3585	0.036	2
3	3686	0.037	2
3	3788	0.038	2
3	3889	0.039	3
3	3990	0.04	2
3	4095	0.041	2
3	4200	0.042	2
3	4299	0.043	2
3	4395	0.044	2
3	4495	0.045	2
3	4603	0.046	3
3	4707	0.047	2
3	4805	0.048	2
3	4905	0.049	2
3	5007	0.05	2
3	5109	0.051	2
3	5209	0.052	3
3	5310	0.053	2
3	5413	0.054	2
3	5517	0.055	2
3	5618	0.056	2
3	5718	0.057	2
3	5817	0.058	2
3	5923	0.059	3
3	6026	0.06	2
3	6124	0.061	2
3	6226	0.062	2
3	6329	0.063	2
3	6430	0.064	2
3	6530	0.065	3
3	6629	0.066	2
3	6734	0.067	2
3	6840	0.068	2
3	6940	0.069	2
3	7034	0.07	2
3	7136	0.071	2
3	7245	0.072	3
3	7346	0.073	2
3	7444	0.074	2
3	7544	0.075	2
3	7648	0.076	2
3	7749	0.077	2
3	7848	0.078	3
3	7951	0.079	2
3	8056	0.08	2
3	8157	0.081	2
3	8257	0.082	2
3	8356	0.083	2
3	8460	0.084	3
3	8564	0.085	2
3	8663	0.086	2
3	8765	0.087	2
3	8870	0.088	2
3	8971	0.089	2
3	9069	0.09	2
3	9169	0.091	3
3	9272	0.092	2
3	9375	0.093	2
3	9479	0.094	2
3	9577	0.095	2
3	9675	0.096	2
3	9780	0.097	3
3	9886	0.098	2
3	9985	0.099	2
4	46	0.001	2
4	140	0.002	2
4	234	0.003	2
4	330	0.004	2
4	436	0.005	3
4	541	0.006	2
4	642	0.007	2
4	742	0.008	2
4	846	0.009	3
4	949	0.01	2
4	1047	0.011	2
4	1144	0.012	2
4	1246	0.013	2
4	1354	0.014	3
4	1459	0.015	2
4	1557	0.016	2
4	1656	0.017	2
4	1757	0.018	3
4	1859	0.019	2
4	1961	0.02	2
4	2065	0.021	2
4	2167	0.022	2
4	2269	0.023	3
4	2369	0.024	2
4	2463	0.025	2
4	2565	0.026	2
4	2674	0.027	3
4	2779	0.028	2
4	2875	0.029	2
4	2975	0.03	2
4	3080	0.031	3
4	3181	0.032	2
4	3281	0.033	2
4	3385	0.034	2
4	3486	0.035	2
4	3586	0.036	3
4	3687	0.037	2
4	3789	0.038	2
4	3890	0.039	2
4	3991	0.04	3
4	4096	0.041	2
4	4201	0.042	2
4	4300	0.043	2
4	4396	0.044	2
4	4496	0.045	3
4	4604	0.046	2
4	4708	0.047	2
4	4806	0.048	2
4	4906	0.049	3
4	5008	0.05	2
4	5110	0.051	2
4	5210	0.052	2
4	5311	0.053	2
4	5414	0.054	3
4	5518	0.055	2
4	5619	0.056	2
4	5719	0.057	2
4	5818	0.058	3
4	5924	0.059	2
4	6027	0.06	2
4	6125	0.061	2
4	6227	0.062	3
4	6330	0.063	2
4	6431	0.064	2
4	6531	0.065	2
4	6630	0.066	2
4	6735	0.067	3
4	6841	0.068	2
4	6941	0.069	2
4	7035	0.07	2
4	7137	0.071	3
4	7246	0.072	2
4	7347	0.073	2
4	7445	0.074	2
4	7545	0.075	2
4	7649	0.076	3
4	7750	0.077	2
4	7849	0.078	2
4	7952	0.079	2
4	8057	0.08	3
4	8158	0.081	2
4	8258	0.082	2
4	8357	0.083	2
4	8461	0.084	2
4	8565	0.085	3
4	8664	0.086	2
4	8766	0.087	2
4	8871	0.088	2
4	8972	0.089	3
4	9070	0.09	2
4	9170	0.091	2
4	9273	0.092	2
4	9376	0.093	3
4	9480	0.094	2
4	9578	0.095	2
4	9676	0.096	2
4	9781	0.097	2
4	9887	0.098	3
4	9986	0.099	2
5	47	0.001	2
5	141	0.002	2
5	235	0.003	2
5	331	0.004	2
5	437	0.005	2
5	542	0.006	2
5	643	0.007	3
5	743	0.008	2
5	847	0.009	2
5	950	0.01	2
5	1048	0.011	2
5	1145	0.012	2
5	1247	0.013	2
5	1355	0.014	3
5	1460	0.015	2
5	1558	0.016	2
5	1657	0.017	2
5	1758	0.018	2
5	1860	0.019	2
5	1962	0.02	2
5	2066	0.021	3
5	2168	0.022	2
5	2270	0.023	2
5	2370	0.024	2
5	2464	0.025	2
5	2566	0.026	2
5	2675	0.027	3
5	2780	0.028	2
5	2876	0.029	2
5	2976	0.03	2
5	3081	0.031	2
5	3182	0.032	2
5	3282	0.033	2
5	3386	0.034	3
5	3487	0.035	2
5	3587	0.036	2
5	3688	0.037	2
5	3790	0.038	2
5	3891	0.039	2
5	3992	0.04	2
5	4097	0.041	3
5	4202	0.042	2
5	4301	0.043	2
5	4397	0.044	2
5	4497	0.045	2
5	4605	0.046	2
5	4709	0.047	3
5	4807	0.048	2
5	4907	0.049	2
5	5009	0.05	2
5	5111	0.051	2
5	5211	0.052	2
5	5312	0.053	2
5	5415	0.054	3
5	5519	0.055	2
5	5620	0.056	2
5	5720	0.057	2
5	5819	0.058	2
5	5925	0.059	2
5	6028	0.06	2
5	6126	0.061	3
5	6228	0.062	2
5	6331	0.063	2
5	6432	0.064	2
5	6532	0.065	2
5	6631	0.066	2
5	6736	0.067	3
5	6842	0.068	2
5	6942	0.069	2
5	7036	0.07	2
5	7138	0.071	2
5	7247	0.072	2
5	7348	0.073	2
5	7446	0.074	3
5	7546	0.075	2
5	7650	0.076	2
5	7751	0.077	2
5	7850	0.078	2
5	7953	0.079	2
5	8058	0.08	2
5	8159	0.081	3
5	8259	0.082	2
5	8358	0.083	2
5	8462	0.084	2
5	8566	0.085	2
5	8665	0.086	2
5	8767	0.087	3
5	8872	0.088	2
5	8973	0.089	2
5	9071	0.09	2
5	9171	0.091	2
5	9274	0.092	2
5	9377	0.093	2
5	9481	0.094	3
5	9579	0.095	2
5	9677	0.096	2
5	9782	0.097	2
5	9888	0.098	2
5	9987	0.099	2
6	48	0.001	2
6	142	0.002	2
6	236	0.003	2
6	332	0.004	2
6	438	0.005	3
6	543	0.006	2
6	644	0.007	2
6	744	0.008	2
6	848	0.009	3
6	951	0.01	2
6	1049	0.011	2
6	1146	0.012	2
6	1248	0.013	3
6	1356	0.014	2
6	1461	0.015	2
6	1559	0.016	2
6	1658	0.017	3
6	1759	0.018	2
6	1861	0.019	2
6	1963	0.02	2
6	2067	0.021	3
6	2169	0.022	2
6	2271	0.023	2
6	2371	0.024	2
6	2465	0.025	2
6	2567	0.026	3
6	2676	0.027	2
6	2781	0.028	2
6	2877	0.029	2
6	2977	0.03	3
6	3082	0.031	2
6	3183	0.032	2
6	3283	0.033	2
6	3387	0.034	3
6	3488	0.035	2
6	3588	0.036	2
6	3689	0.037	2
6	3791	0.038	3
6	3892	0.039	2
6	3993	0.04	2
6	4098	0.041	2
6	4203	0.042	3
6	4302	0.043	2
6	4398	0.044	2
6	4498	0.045	2
6	4606	0.046	3
6	4710	0.047	2
6	4808	0.048	2
6	4908	0.049	2
6	5010	0.05	2
6	5112	0.051	3
6	5212	0.052	2
6	5313	0.053	2
6	5416	0.054	2
6	5520	0.055	3
6	5621	0.056	2
6	5721	0.057	2
6	5820	0.058	2
6	5926	0.059	3
6	6029	0.06	2
6	6127	0.061	2
6	6229	0.062	2
6	6332	0.063	3
6	6433	0.064	2
6	6533	0.065	2
6	6632	0.066	2
6	6737	0.067	3
6	6843	0.068	2
6	6943	0.069	2
6	7037	0.07	2
6	7139	0.071	3
6	7248	0.072	2
6	7349	0.073	2
6	7447	0.074	2
6	7547	0.075	2
6	7651	0.076	3
6	7752	0.077	2
6	7851	0.078	2
6	7954	0.079	2
6	8059	0.08	3
6	8160	0.081	2
6	8260	0.082	2
6	8359	0.083	2
6	8463	0.084	3
6	8567	0.085	2
6	8666	0.086	2
6	8768	0.087	2
6	8873	0.088	3
6	8974	0.089	2
6	9072	0.09	2
6	9172	0.091	2
6	9275	0.092	3
6	9378	0.093	2
6	9482	0.094	2
6	9580	0.095	2
6	9678	0.096	3
6	9783	0.097	2
6	9889	0.098	2
6	9988	0.099	2
7	49	0.001	2
7	143	0.002	2
7	237	0.003	2
7	333	0.004	2
7	439	0.005	2
7	544	0.006	2
7	645	0.007	3
7	745	0.008	2
7	849	0.009	2
7	952	0.01	2
7	1050	0.011	2
7	1147	0.012	2
7	1249	0.013	2
7	1357	0.014	3
7	1462	0.015	2
7	1560	0.016	2
7	1659	0.017	2
7	1760	0.018	2
7	1862	0.019	2
7	1964	0.02	3
7	2068	0.021	2
7	2170	0.022	2
7	2272	0.023	2
7	2372	0.024	2
7	2466	0.025	2
7	2568	0.026	2
7	2677	0.027	3
7	2782	0.028	2
7	2878	0.029	2
7	2978	0.03	2
7	3083	0.031	2
7	3184	0.032	2
7	3284	0.033	3
7	3388	0.034	2
7	3489	0.035	2
7	3589	0.036	2
7	3690	0.037	2
7	3792	0.038	2
7	3893	0.039	2
7	3994	0.04	3
7	4099	0.041	2
7	4204	0.042	2
7	4303	0.043	2
7	4399	0.044	2
7	4499	0.045	2
7	4607	0.046	3
7	4711	0.047	2
7	4809	0.048	2
7	4909	0.049	2
7	5011	0.05	2
7	5113	0.051	2
7	5213	0.052	2
7	5314	0.053	3
7	5417	0.054	2
7	5521	0.055	2
7	5622	0.056	2
7	5722	0.057	2
7	5821	0.058	2
7	5927	0.059	3
7	6030	0.06	2
7	6128	0.061	2
7	6230	0.062	2
7	6333	0.063	2
7	6434	0.064	2
7	6534	0.065	2
7	6633	0.066	3
7	6738	0.067	2
7	6844	0.068	2
7	6944	0.069	2
7	7038	0.07	2
7	7140	0.071	2
7	7249	0.072	3
7	7350	0.073	2
7	7448	0.074	2
7	7548	0.075	2
7	7652	0.076	2
7	7753	0.077	2
7	7852	0.078	2
7	7955	0.079	3
7	8060	0.08	2
7	8161	0.081	2
7	8261	0.082	2
7	8360	0.083	2
7	8464	0.084	2
7	8568	0.085	3
7	8667	0.086	2
7	8769	0.087	2
7	8874	0.088	2
7	8975	0.089	2
7	9073	0.09	2
7	9173	0.091	2
7	9276	0.092	3
7	9379	0.093	2
7	9483	0.094	2
7	9581	0.095	2
7	9679	0.096	2
7	9784	0.097	2
7	9890	0.098	3
7	9989	0.099	2
8	50	0.001	2
8	144	0.002	2
8	238	0.003	2
8	334	0.004	3
8	440	0.005	2
8	545	0.006	2
8	646	0.007	2
8	746	0.008	3
8	850	0.009	2
8	953	0.01	2
8	1051	0.011	2
8	1148	0.012	3
8	1250	0.013	2
8	1358	0.014	2
8	1463	0.015	3
8	1561	0.016	2
8	1660	0.017	2
8	1761	0.018	2
8	1863	0.019	3
8	1965	0.02	2
8	2069	0.021	2
8	2171	0.022	2
8	2273	0.023	3
8	2373	0.024	2
8	2467	0.025	2
8	2569	0.026	2
8	2678	0.027	3
8	2783	0.028	2
8	2879	0.029	2
8	2979	0.03	3
8	3084	0.031	2
8	3185	0.032	2
8	3285	0.033	2
8	3389	0.034	3
8	3490	0.035	2
8	3590	0.036	2
8	3691	0.037	2
8	3793	0.038	3
8	3894	0.039	2
8	3995	0.04	2
8	4100	0.041	2
8	4205	0.042	3
8	4304	0.043	2
8	4400	0.044	2
8	4500	0.045	3
8	4608	0.046	2
8	4712	0.047	2
8	4810	0.048	2
8	4910	0.049	3
8	5012	0.05	2
8	5114	0.051	2
8	5214	0.052	2
8	5315	0.053	3
8	5418	0.054	2
8	5522	0.055	2
8	5623	0.056	3
8	5723	0.057	2
8	5822	0.058	2
8	5928	0.059	2
8	6031	0.06	3
8	6129	0.061	2
8	6231	0.062	2
8	6334	0.063	2
8	6435	0.064	3
8	6535	0.065	2
8	6634	0.066	2
8	6739	0.067	2
8	6845	0.068	3
8	6945	0.069	2
8	7039	0.07	2
8	7141	0.071	3
8	7250	0.072	2
8	7351	0.073	2
8	7449	0.074	2
8	7549	0.075	3
8	7653	0.076	2
8	7754	0.077	2
8	7853	0.078	2
8	7956	0.079	3
8	8061	0.08	2
8	8162	0.081	2
8	8262	0.082	2
8	8361	0.083	3
8	8465	0.084	2
8	8569	0.085	2
8	8668	0.086	3
8	8770	0.087	2
8	8875	0.088	2
8	8976	0.089	2
8	9074	0.09	3
8	9174	0.091	2
8	9277	0.092	2
8	9380	0.093	2
8	9484	0.094	3
8	9582	0.095	2
8	9680	0.096	2
8	9785	0.097	2
8	9891	0.098	3
8	9990	0.099	2
9	51	0.001	2
9	145	0.002	2
9	239	0.003	2
9	335	0.004	2
9	441	0.005	3
9	546	0.006	2
9	647	0.007	2
9	747	0.008	2
9	851	0.009	2
9	954	0.01	3
9	1052	0.011	2
9	1149	0.012	2
9	1251	0.013	2
9	1359	0.014	3
9	1464	0.015	2
9	1562	0.016	2
9	1661	0.017	2
9	1762	0.018	2
9	1864	0.019	3
9	1966	0.02	2
9	2070	0.021	2
9	2172	0.022	2
9	2274	0.023	3
9	2374	0.024	2
9	2468	0.025	2
9	2570	0.026	2
9	2679	0.027	2
9	2784	0.028	3
9	2880	0.029	2
9	2980	0.03	2
9	3085	0.031	2
9	3186	0.032	3
9	3286	0.033	2
9	3390	0.034	2
9	3491	0.035	2
9	3591	0.036	2
9	3692	0.037	3
9	3794	0.038	2
9	3895	0.039	2
9	3996	0.04	2
9	4101	0.041	3
9	4206	0.042	2
9	4305	0.043	2
9	4401	0.044	2
9	4501	0.045	2
9	4609	0.046	3
9	4713	0.047	2
9	4811	0.048	2
9	4911	0.049	2
9	5013	0.05	3
9	5115	0.051	2
9	5215	0.052	2
9	5316	0.053	2
9	5419	0.054	2
9	5523	0.055	3
9	5624	0.056	2
9	5724	0.057	2
9	5823	0.058	2
9	5929	0.059	3
9	6032	0.06	2
9	6130	0.061	2
9	6232	0.062	2
9	6335	0.063	2
9	6436	0.064	3
9	6536	0.065	2
9	6635	0.066	2
9	6740	0.067	2
9	6846	0.068	3
9	6946	0.069	2
9	7040	0.07	2
9	7142	0.071	2
9	7251	0.072	2
9	7352	0.073	3
9	7450	0.074	2
9	7550	0.075	2
9	7654	0.076	2
9	7755	0.077	2
9	7854	0.078	3
9	7957	0.079	2
9	8062	0.08	2
9	8163	0.081	2
9	8263	0.082	3
9	8362	0.083	2
9	8466	0.084	2
9	8570	0.085	2
9	8669	0.086	2
9	8771	0.087	3
9	8876	0.088	2
9	8977	0.089	2
9	9075	0.09	2
9	9175	0.091	3
9	9278	0.092	2
9	9381	0.093	2
9	9485	0.094	2
9	9583	0.095	2
9	9681	0.096	3
9	9786	0.097	2
9	9892	0.098	2
9	9991	0.099	2
10	61	0.001	5
10	155	0.002	5
10	249	0.003	5
10	345	0.004	4
10	451	0.005	0
10	556	0.006	4
10	657	0.007	2
10	757	0.008	4
10	861	0.009	1
10	964	0.01	4
10	1062	0.011	4
10	1159	0.012	4
10	1261	0.013	2
10	1369	0.014	0
10	1474	0.015	4
10	1572	0.016	4
10	1671	0.017	3
10	1772	0.018	3
10	1874	0.019	3
10	1976	0.02	3
10	2080	0.021	1
10	2182	0.022	4
10	2284	0.023	2
10	2384	0.024	5
10	2478	0.025	5
10	2580	0.026	1
10	2689	0.027	0
10	2794	0.028	4
10	2890	0.029	5
10	2990	0.03	2
10	3095	0.031	2
10	3196	0.032	4
10	3296	0.033	3
10	3400	0.034	1
10	3501	0.035	5
10	3601	0.036	2
10	3702	0.037	4
10	3804	0.038	2
10	3905	0.039	4
10	4006	0.04	2
10	4111	0.041	2
10	4216	0.042	2
10	4315	0.043	5
10	4411	0.044	4
10	4511	0.045	3
10	4619	0.046	0
10	4723	0.047	3
10	4821	0.048	5
10	4921	0.049	2
10	5023	0.05	4
10	5125	0.051	2
10	5225	0.052	4
10	5326	0.053	2
10	5429	0.054	3
10	5533	0.055	2
10	5634	0.056	4
10	5734	0.057	3
10	5833	0.058	4
10	5939	0.059	0
10	6042	0.06	4
10	6140	0.061	4
10	6242	0.062	2
10	6345	0.063	3
10	6446	0.064	3
10	6546	0.065	4
10	6645	0.066	3
10	6750	0.067	1
10	6856	0.068	2
10	6956	0.069	5
10	7050	0.07	5
10	7152	0.071	1
10	7261	0.072	1
10	7362	0.073	4
10	7460	0.074	4
10	7560	0.075	3
10	7664	0.076	2
10	7765	0.077	4
10	7864	0.078	3
10	7967	0.079	2
10	8072	0.08	2
10	8173	0.081	4
10	8273	0.082	3
10	8372	0.083	4
10	8476	0.084	1
10	8580	0.085	3
10	8679	0.086	4
10	8781	0.087	2
10	8886	0.088	2
10	8987	0.089	4
10	9085	0.09	4
10	9185	0.091	3
10	9288	0.092	2
10	9391	0.093	2
10	9495	0.094	3
10	9593	0.095	5
10	9691	0.096	3
10	9796	0.097	1
10	9902	0.098	2
11	61	0.001	0
11	155	0.002	0
11	249	0.003	0
11	345	0.004	0
11	451	0.005	0
11	556	0.006	0
11	657	0.007	0
11	757	0.008	0
11	861	0.009	0
11	964	0.01	0
11	1062	0.011	0
11	1159	0.012	0
11	1261	0.013	0
11	1369	0.014	0
11	1474	0.015	0
11	1572	0.016	0
11	1671	0.017	0
11	1772	0.018	0
11	1874	0.019	0
11	1976	0.02	0
11	2080	0.021	0
11	2182	0.022	0
11	2284	0.023	0
11	2384	0.024	0
11	2478	0.025	0
11	2580	0.026	0
11	2689	0.027	0
11	2794	0.028	0
11	2890	0.029	0
11	2990	0.03	0
11	3095	0.031	0
11	3196	0.032	0
11	3296	0.033	0
11	3400	0.034	0
11	3501	0.035	0
11	3601	0.036	0
11	3702	0.037	0
11	3804	0.038	0
11	3905	0.039	0
11	4006	0.04	0
11	4111	0.041	0
11	4216	0.042	0
11	4315	0.043	0
11	4411	0.044	0
11	4511	0.045	0
11	4619	0.046	0
11	4723	0.047	0
11	4821	0.048	0
11	4921	0.049	0
11	5023	0.05	0
11	5125	0.051	0
11	5225	0.052	0
11	5326	0.053	0
11	5429	0.054	0
11	5533	0.055	0
11	5634	0.056	0
11	5734	0.057	0
11	5833	0.058	0
11	5939	0.059	0
11	6042	0.06	0
11	6140	0.061	0
11	6242	0.062	0
11	6345	0.063	0
11	6446	0.064	0
11	6546	0.065	0
11	6645	0.066	0
11	6750	0.067	0
11	6856	0.068	0
11	6956	0.069	0
11	7050	0.07	0
11	7152	0.071	0
11	7261	0.072	0
11	7362	0.073	0
11	7460	0.074	0
11	7560	0.075	0
11	7664	0.076	0
11	7765	0.077	0
11	7864	0.078	0
11	7967	0.079	0
11	8072	0.08	0
11	8173	0.081	0
11	8273	0.082	0
11	8372	0.083	0
11	8476	0.084	0
11	8580	0.085	0
11	8679	0.086	0
11	8781	0.087	0
11	8886	0.088	0
11	8987	0.089	0
11	9085	0.09	0
11	9185	0.091	0
11	9288	0.092	0
11	9391	0.093	0
11	9495	0.094	0
11	9593	0.095	0
11	9691	0.096	0
11	9796	0.097	0
11	9902	0.098	0
12	62	0.001	1
12	72	0.001	0
12	157	0.002	1
12	166	0.002	0
12	251	0.003	1
12	260	0.003	0
12	347	0.004	1
12	356	0.004	0
12	453	0.005	2
12	463	0.005	1
12	467	0.005	0
12	562	0.006	1
12	568	0.006	0
12	663	0.007	1
12	670	0.007	0
12	763	0.008	1
12	769	0.008	0
12	863	0.009	2
12	872	0.009	1
12	876	0.009	0
12	970	0.01	1
12	977	0.01	0
12	1068	0.011	1
12	1074	0.011	0
12	1165	0.012	1
12	1171	0.012	0
12	1263	0.013	2
12	1272	0.013	1
12	1275	0.013	0
12	1379	0.014	1
12	1385	0.014	0
12	1480	0.015	1
12	1486	0.015	0
12	1574	0.016	1
12	1583	0.016	0
12	1673	0.017	2
12	1682	0.017	1
12	1685	0.017	0
12	1782	0.018	1
12	1786	0.018	0
12	1880	0.019	1
12	1887	0.019	0
12	1978	0.02	1
12	1987	0.02	0
12	2082	0.021	2
12	2091	0.021	1
12	2095	0.021	0
12	2192	0.022	1
12	2196	0.022	0
12	2294	0.023	1
12	2298	0.023	0
12	2386	0.024	1
12	2395	0.024	0
12	2480	0.025	1
12	2489	0.025	0
12	2582	0.026	2
12	2591	0.026	1
12	2594	0.026	0
12	2699	0.027	1
12	2704	0.027	0
12	2796	0.028	1
12	2806	0.028	0
12	2892	0.029	1
12	2901	0.029	0
12	2992	0.03	2
12	3001	0.03	1
12	3004	0.03	0
12	3097	0.031	1
12	3106	0.031	0
12	3202	0.032	1
12	3209	0.032	0
12	3302	0.033	1
12	3308	0.033	0
12	3406	0.034	2
12	3413	0.034	1
12	3416	0.034	0
12	3511	0.035	1
12	3514	0.035	0
12	3611	0.036	1
12	3615	0.036	0
12	3708	0.037	1
12	3715	0.037	0
12	3810	0.038	2
12	3816	0.038	1
12	3819	0.038	0
12	3915	0.039	1
12	3918	0.039	0
12	4016	0.04	1
12	4020	0.04	0
12	4117	0.041	1
12	4125	0.041	0
12	4222	0.042	2
12	4228	0.042	1
12	4231	0.042	0
12	4325	0.043	1
12	4328	0.043	0
12	4421	0.044	1
12	4425	0.044	0
12	4521	0.045	1
12	4524	0.045	0
12	4621	0.046	1
12	4631	0.046	0
12	4725	0.047	2
12	4734	0.047	1
12	4738	0.047	0
12	4831	0.048	1
12	4834	0.048	0
12	4931	0.049	1
12	4935	0.049	0
12	5025	0.05	1
12	5035	0.05	0
12	5127	0.051	2
12	5136	0.051	1
12	5139	0.051	0
12	5235	0.052	1
12	5238	0.052	0
12	5336	0.053	1
12	5340	0.053	0
12	5431	0.054	1
12	5440	0.054	0
12	5539	0.055	2
12	5546	0.055	1
12	5548	0.055	0
12	5644	0.056	1
12	5647	0.056	0
12	5736	0.057	1
12	5745	0.057	0
12	5835	0.058	1
12	5844	0.058	0
12	5945	0.059	2
12	5952	0.059	1
12	5954	0.059	0
12	6052	0.06	1
12	6055	0.06	0
12	6142	0.061	1
12	6151	0.061	0
12	6244	0.062	1
12	6253	0.062	0
12	6351	0.063	2
12	6357	0.063	1
12	6359	0.063	0
12	6456	0.064	1
12	6460	0.064	0
12	6548	0.065	1
12	6557	0.065	0
12	6647	0.066	1
12	6656	0.066	0
12	6752	0.067	1
12	6761	0.067	0
12	6862	0.068	2
12	6869	0.068	1
12	6872	0.068	0
12	6966	0.069	1
12	6969	0.069	0
12	7060	0.07	1
12	7063	0.07	0
12	7162	0.071	1
12	7166	0.071	0
12	7263	0.072	2
12	7272	0.072	1
12	7275	0.072	0
12	7372	0.073	1
12	7376	0.073	0
12	7470	0.074	1
12	7474	0.074	0
12	7570	0.075	1
12	7574	0.075	0
12	7666	0.076	2
12	7675	0.076	1
12	7678	0.076	0
12	7771	0.077	1
12	7777	0.077	0
12	7870	0.078	1
12	7877	0.078	0
12	7973	0.079	1
12	7979	0.079	0
12	8074	0.08	2
12	8083	0.08	1
12	8086	0.08	0
12	8179	0.081	1
12	8186	0.081	0
12	8279	0.082	1
12	8286	0.082	0
12	8378	0.083	1
12	8384	0.083	0
12	8478	0.084	2
12	8487	0.084	1
12	8491	0.084	0
12	8590	0.085	1
12	8593	0.085	0
12	8685	0.086	1
12	8691	0.086	0
12	8783	0.087	1
12	8793	0.087	0
12	8888	0.088	2
12	8897	0.088	1
12	8901	0.088	0
12	8997	0.089	1
12	9000	0.089	0
12	9091	0.09	1
12	9097	0.09	0
12	9187	0.091	1
12	9197	0.091	0
12	9290	0.092	1
12	9299	0.092	0
12	9393	0.093	2
12	9402	0.093	1
12	9406	0.093	0
12	9501	0.094	1
12	9508	0.094	0
12	9595	0.095	1
12	9604	0.095	0
12	9693	0.096	1
12	9703	0.096	0
12	9798	0.097	2
12	9807	0.097	1
12	9811	0.097	0
12	9912	0.098	1
12	9915	0.098	0
13	63	0.001	0
13	158	0.002	0
13	252	0.003	0
13	348	0.004	0
13	454	0.005	1
13	464	0.005	0
13	563	0.006	0
13	664	0.007	0
13	764	0.008	0
13	864	0.009	1
13	873	0.009	0
13	971	0.01	0
13	1069	0.011	0
13	1166	0.012	0
13	1264	0.013	0
13	1370	0.014	1
13	1380	0.014	0
13	1481	0.015	0
13	1575	0.016	0
13	1674	0.017	0
13	1773	0.018	1
13	1783	0.018	0
13	1881	0.019	0
13	1979	0.02	0
13	2083	0.021	0
13	2183	0.022	1
13	2193	0.022	0
13	2285	0.023	0
13	2387	0.024	0
13	2481	0.025	0
13	2583	0.026	0
13	2690	0.027	1
13	2700	0.027	0
13	2797	0.028	0
13	2893	0.029	0
13	2993	0.03	0
13	3098	0.031	1
13	3107	0.031	0
13	3203	0.032	0
13	3303	0.033	0
13	3407	0.034	0
13	3502	0.035	0
13	3602	0.036	1
13	3612	0.036	0
13	3709	0.037	0
13	3811	0.038	0
13	3906	0.039	0
13	4007	0.04	1
13	4017	0.04	0
13	4118	0.041	0
13	4223	0.042	0
13	4316	0.043	0
13	4412	0.044	1
13	4422	0.044	0
13	4512	0.045	0
13	4622	0.046	0
13	4726	0.047	0
13	4822	0.048	0
13	4922	0.049	1
13	4932	0.049	0
13	5026	0.05	0
13	5128	0.051	0
13	5226	0.052	0
13	5327	0.053	1
13	5337	0.053	0
13	5432	0.054	0
13	5540	0.055	0
13	5635	0.056	0
13	5737	0.057	1
13	5746	0.057	0
13	5836	0.058	0
13	5946	0.059	0
13	6043	0.06	0
13	6143	0.061	0
13	6245	0.062	1
13	6254	0.062	0
13	6352	0.063	0
13	6447	0.064	0
13	6549	0.065	0
13	6648	0.066	1
13	6657	0.066	0
13	6753	0.067	0
13	6863	0.068	0
13	6957	0.069	0
13	7051	0.07	0
13	7153	0.071	1
13	7163	0.071	0
13	7264	0.072	0
13	7363	0.073	0
13	7461	0.074	0
13	7561	0.075	1
13	7571	0.075	0
13	7667	0.076	0
13	7772	0.077	0
13	7871	0.078	0
13	7974	0.079	1
13	7980	0.079	0
13	8075	0.08	0
13	8180	0.081	0
13	8280	0.082	0
13	8379	0.083	0
13	8479	0.084	1
13	8488	0.084	0
13	8581	0.085	0
13	8686	0.086	0
13	8784	0.087	0
13	8889	0.088	1
13	8898	0.088	0
13	8988	0.089	0
13	9092	0.09	0
13	9188	0.091	0
13	9291	0.092	0
13	9394	0.093	1
13	9403	0.093	0
13	9502	0.094	0
13	9596	0.095	0
13	9694	0.096	0
13	9799	0.097	1
13	9808	0.097	0
13	9903	0.098	0
14	64	0.001	0
14	159	0.002	0
14	253	0.003	0
14	349	0.004	0
14	455	0.005	0
14	564	0.006	0
14	665	0.007	0
14	765	0.008	0
14	865	0.009	0
14	972	0.01	0
14	1070	0.011	0
14	1167	0.012	0
14	1265	0.013	0
14	1371	0.014	0
14	1482	0.015	0
14	1576	0.016	0
14	1675	0.017	0
14	1774	0.018	0
14	1882	0.019	0
14	1980	0.02	0
14	2084	0.021	0
14	2184	0.022	0
14	2286	0.023	0
14	2388	0.024	0
14	2482	0.025	0
14	2584	0.026	0
14	2691	0.027	0
14	2798	0.028	0
14	2894	0.029	0
14	2994	0.03	0
14	3099	0.031	0
14	3204	0.032	0
14	3304	0.033	0
14	3408	0.034	0
14	3503	0.035	0
14	3603	0.036	0
14	3710	0.037	0
14	3812	0.038	0
14	3907	0.039	0
14	4008	0.04	0
14	4119	0.041	0
14	4224	0.042	0
14	4317	0.043	0
14	4413	0.044	0
14	4513	0.045	0
14	4623	0.046	0
14	4727	0.047	0
14	4823	0.048	0
14	4923	0.049	0
14	5027	0.05	0
14	5129	0.051	0
14	5227	0.052	0
14	5328	0.053	0
14	5433	0.054	0
14	5541	0.055	0
14	5636	0.056	0
14	5738	0.057	0
14	5837	0.058	0
14	5947	0.059	0
14	6044	0.06	0
14	6144	0.061	0
14	6246	0.062	0
14	6353	0.063	0
14	6448	0.064	0
14	6550	0.065	0
14	6649	0.066	0
14	6754	0.067	0
14	6864	0.068	0
14	6958	0.069	0
14	7052	0.07	0
14	7154	0.071	0
14	7265	0.072	0
14	7364	0.073	0
14	7462	0.074	0
14	7562	0.075	0
14	7668	0.076	0
14	7773	0.077	0
14	7872	0.078	0
14	7975	0.079	0
14	8076	0.08	0
14	8181	0.081	0
14	8281	0.082	0
14	8380	0.083	0
14	8480	0.084	0
14	8582	0.085	0
14	8687	0.086	0
14	8785	0.087	0
14	8890	0.088	0
14	8989	0.089	0
14	9093	0.09	0
14	9189	0.091	0
14	9292	0.092	0
14	9395	0.093	0
14	9503	0.094	0
14	9597	0.095	0
14	9695	0.096	0
14	9800	0.097	0
14	9904	0.098	0
15	65	0.001	0
15	160	0.002	0
15	254	0.003	0
15	350	0.004	0
15	456	0.005	0
15	565	0.006	0
15	666	0.007	0
15	766	0.008	0
15	866	0.009	0
15	973	0.01	0
15	1071	0.011	0
15	1168	0.012	0
15	1266	0.013	0
15	1372	0.014	0
15	1483	0.015	0
15	1577	0.016	0
15	1676	0.017	0
15	1775	0.018	0
15	1883	0.019	0
15	1981	0.02	0
15	2085	0.021	0
15	2185	0.022	0
15	2287	0.023	0
15	2389	0.024	0
15	2483	0.025	0
15	2585	0.026	0
15	2692	0.027	0
15	2799	0.028	0
15	2895	0.029	0
15	2995	0.03	0
15	3100	0.031	0
15	3205	0.032	0
15	3305	0.033	0
15	3409	0.034	0
15	3504	0.035	0
15	3604	0.036	0
15	3711	0.037	0
15	3813	0.038	0
15	3908	0.039	0
15	4009	0.04	0
15	4120	0.041	0
15	4225	0.042	0
15	4318	0.043	0
15	4414	0.044	0
15	4514	0.045	0
15	4624	0.046	0
15	4728	0.047	0
15	4824	0.048	0
15	4924	0.049	0
15	5028	0.05	0
15	5130	0.051	0
15	5228	0.052	0
15	5329	0.053	0
15	5434	0.054	0
15	5542	0.055	0
15	5637	0.056	0
15	5739	0.057	0
15	5838	0.058	0
15	5948	0.059	0
15	6045	0.06	0
15	6145	0.061	0
15	6247	0.062	0
15	6354	0.063	0
15	6449	0.064	0
15	6551	0.065	0
15	6650	0.066	0
15	6755	0.067	0
15	6865	0.068	0
15	6959	0.069	0
15	7053	0.07	0
15	7155	0.071	0
15	7266	0.072	0
15	7365	0.073	0
15	7463	0.074	0
15	7563	0.075	0
15	7669	0.076	0
15	7774	0.077	0
15	7873	0.078	0
15	7976	0.079	0
15	8077	0.08	0
15	8182	0.081	0
15	8282	0.082	0
15	8381	0.083	0
15	8481	0.084	0
15	8583	0.085	0
15	8688	0.086	0
15	8786	0.087	0
15	8891	0.088	0
15	8990	0.089	0
15	9094	0.09	0
15	9190	0.091	0
15	9293	0.092	0
15	9396	0.093	0
15	9504	0.094	0
15	9598	0.095	0
15	9696	0.096	0
15	9801	0.097	0
15	9905	0.098	0
16	66	0.001	1
16	73	0.001	0
16	161	0.002	1
16	167	0.002	0
16	255	0.003	1
16	261	0.003	0
16	351	0.004	1
16	357	0.004	0
16	457	0.005	2
16	465	0.005	1
16	468	0.005	0
16	566	0.006	1
16	569	0.006	0
16	667	0.007	1
16	671	0.007	0
16	767	0.008	1
16	770	0.008	0
16	867	0.009	2
16	874	0.009	1
16	877	0.009	0
16	974	0.01	1
16	978	0.01	0
16	1072	0.011	1
16	1075	0.011	0
16	1169	0.012	1
16	1172	0.012	0
16	1267	0.013	1
16	1273	0.013	0
16	1373	0.014	2
16	1381	0.014	1
16	1386	0.014	0
16	1484	0.015	1
16	1487	0.015	0
16	1578	0.016	1
16	1584	0.016	0
16	1677	0.017	1
16	1683	0.017	0
16	1776	0.018	2
16	1784	0.018	1
16	1787	0.018	0
16	1884	0.019	1
16	1888	0.019	0
16	1982	0.02	1
16	1988	0.02	0
16	2086	0.021	1
16	2092	0.021	0
16	2186	0.022	1
16	2194	0.022	0
16	2288	0.023	2
16	2295	0.023	1
16	2299	0.023	0
16	2390	0.024	1
16	2396	0.024	0
16	2484	0.025	1
16	2490	0.025	0
16	2586	0.026	1
16	2592	0.026	0
16	2693	0.027	2
16	2701	0.027	1
16	2705	0.027	0
16	2800	0.028	1
16	2807	0.028	0
16	2896	0.029	1
16	2902	0.029	0
16	2996	0.03	1
16	3002	0.03	0
16	3101	0.031	2
16	3108	0.031	1
16	3110	0.031	0
16	3206	0.032	1
16	3210	0.032	0
16	3306	0.033	1
16	3309	0.033	0
16	3410	0.034	1
16	3414	0.034	0
16	3505	0.035	1
16	3512	0.035	0
16	3605	0.036	2
16	3613	0.036	1
16	3616	0.036	0
16	3712	0.037	1
16	3716	0.037	0
16	3814	0.038	1
16	3817	0.038	0
16	3909	0.039	1
16	3916	0.039	0
16	4010	0.04	2
16	4018	0.04	1
16	4021	0.04	0
16	4121	0.041	1
16	4126	0.041	0
16	4226	0.042	1
16	4229	0.042	0
16	4319	0.043	1
16	4326	0.043	0
16	4415	0.044	1
16	4423	0.044	0
16	4515	0.045	2
16	4522	0.045	1
16	4525	0.045	0
16	4625	0.046	1
16	4632	0.046	0
16	4729	0.047	1
16	4735	0.047	0
16	4825	0.048	1
16	4832	0.048	0
16	4925	0.049	2
16	4933	0.049	1
16	4936	0.049	0
16	5029	0.05	1
16	5036	0.05	0
16	5131	0.051	1
16	5137	0.051	0
16	5229	0.052	1
16	5236	0.052	0
16	5330	0.053	1
16	5338	0.053	0
16	5435	0.054	2
16	5441	0.054	1
16	5444	0.054	0
16	5543	0.055	1
16	5547	0.055	0
16	5638	0.056	1
16	5645	0.056	0
16	5740	0.057	1
16	5747	0.057	0
16	5839	0.058	2
16	5845	0.058	1
16	5847	0.058	0
16	5949	0.059	1
16	5953	0.059	0
16	6046	0.06	1
16	6053	0.06	0
16	6146	0.061	1
16	6152	0.061	0
16	6248	0.062	2
16	6255	0.062	1
16	6257	0.062	0
16	6355	0.063	1
16	6358	0.063	0
16	6450	0.064	1
16	6457	0.064	0
16	6552	0.065	1
16	6558	0.065	0
16	6651	0.066	1
16	6658	0.066	0
16	6756	0.067	2
16	6762	0.067	1
16	6765	0.067	0
16	6866	0.068	1
16	6870	0.068	0
16	6960	0.069	1
16	6967	0.069	0
16	7054	0.07	1
16	7061	0.07	0
16	7156	0.071	2
16	7164	0.071	1
16	7167	0.071	0
16	7267	0.072	1
16	7273	0.072	0
16	7366	0.073	1
16	7373	0.073	0
16	7464	0.074	1
16	7471	0.074	0
16	7564	0.075	1
16	7572	0.075	0
16	7670	0.076	2
16	7676	0.076	1
16	7679	0.076	0
16	7775	0.077	1
16	7778	0.077	0
16	7874	0.078	1
16	7878	0.078	0
16	7977	0.079	1
16	7981	0.079	0
16	8078	0.08	2
16	8084	0.08	1
16	8087	0.08	0
16	8183	0.081	1
16	8187	0.081	0
16	8283	0.082	1
16	8287	0.082	0
16	8382	0.083	1
16	8385	0.083	0
16	8482	0.084	1
16	8489	0.084	0
16	8584	0.085	2
16	8591	0.085	1
16	8594	0.085	0
16	8689	0.086	1
16	8692	0.086	0
16	8787	0.087	1
16	8794	0.087	0
16	8892	0.088	1
16	8899	0.088	0
16	8991	0.089	2
16	8998	0.089	1
16	9001	0.089	0
16	9095	0.09	1
16	9098	0.09	0
16	9191	0.091	1
16	9198	0.091	0
16	9294	0.092	1
16	9300	0.092	0
16	9397	0.093	2
16	9404	0.093	1
16	9407	0.093	0
16	9505	0.094	1
16	9509	0.094	0
16	9599	0.095	1
16	9605	0.095	0
16	9697	0.096	1
16	9704	0.096	0
16	9802	0.097	1
16	9809	0.097	0
16	9906	0.098	2
16	9913	0.098	1
16	9916	0.098	0
17	67	0.001	0
17	162	0.002	0
17	256	0.003	0
17	352	0.004	0
17	458	0.005	0
17	557	0.006	0
17	658	0.007	1
17	668	0.007	0
17	758	0.008	0
17	868	0.009	0
17	965	0.01	0
17	1063	0.011	0
17	1160	0.012	0
17	1268	0.013	0
17	1374	0.014	1
17	1382	0.014	0
17	1475	0.015	0
17	1579	0.016	0
17	1678	0.017	0
17	1777	0.018	0
17	1875	0.019	0
17	1983	0.02	0
17	2087	0.021	1
17	2093	0.021	0
17	2187	0.022	0
17	2289	0.023	0
17	2391	0.024	0
17	2485	0.025	0
17	2587	0.026	0
17	2694	0.027	1
17	2702	0.027	0
17	2801	0.028	0
17	2897	0.029	0
17	2997	0.03	0
17	3102	0.031	0
17	3197	0.032	0
17	3297	0.033	0
17	3401	0.034	1
17	3411	0.034	0
17	3506	0.035	0
17	3606	0.036	0
17	3703	0.037	0
17	3805	0.038	0
17	3910	0.039	0
17	4011	0.04	0
17	4112	0.041	1
17	4122	0.041	0
17	4217	0.042	0
17	4320	0.043	0
17	4416	0.044	0
17	4516	0.045	0
17	4626	0.046	0
17	4730	0.047	1
17	4736	0.047	0
17	4826	0.048	0
17	4926	0.049	0
17	5030	0.05	0
17	5132	0.051	0
17	5230	0.052	0
17	5331	0.053	0
17	5436	0.054	1
17	5442	0.054	0
17	5534	0.055	0
17	5639	0.056	0
17	5741	0.057	0
17	5840	0.058	0
17	5940	0.059	0
17	6047	0.06	0
17	6147	0.061	1
17	6153	0.061	0
17	6249	0.062	0
17	6346	0.063	0
17	6451	0.064	0
17	6553	0.065	0
17	6652	0.066	0
17	6757	0.067	1
17	6763	0.067	0
17	6857	0.068	0
17	6961	0.069	0
17	7055	0.07	0
17	7157	0.071	0
17	7268	0.072	0
17	7367	0.073	0
17	7465	0.074	1
17	7472	0.074	0
17	7565	0.075	0
17	7671	0.076	0
17	7766	0.077	0
17	7865	0.078	0
17	7968	0.079	0
17	8079	0.08	0
17	8174	0.081	1
17	8184	0.081	0
17	8274	0.082	0
17	8373	0.083	0
17	8483	0.084	0
17	8585	0.085	0
17	8680	0.086	0
17	8788	0.087	1
17	8795	0.087	0
17	8893	0.088	0
17	8992	0.089	0
17	9086	0.09	0
17	9192	0.091	0
17	9295	0.092	0
17	9398	0.093	0
17	9496	0.094	1
17	9506	0.094	0
17	9600	0.095	0
17	9698	0.096	0
17	9803	0.097	0
17	9907	0.098	0
18	68	0.001	0
18	163	0.002	0
18	257	0.003	0
18	353	0.004	0
18	459	0.005	0
18	558	0.006	0
18	659	0.007	0
18	759	0.008	0
18	869	0.009	0
18	966	0.01	0
18	1064	0.011	0
18	1161	0.012	0
18	1269	0.013	0
18	1375	0.014	0
18	1476	0.015	0
18	1580	0.016	0
18	1679	0.017	0
18	1778	0.018	0
18	1876	0.019	0
18	1984	0.02	0
18	2088	0.021	0
18	2188	0.022	0
18	2290	0.023	0
18	2392	0.024	0
18	2486	0.025	0
18	2588	0.026	0
18	2695	0.027	0
18	2802	0.028	0
18	2898	0.029	0
18	2998	0.03	0
18	3103	0.031	0
18	3198	0.032	0
18	3298	0.033	0
18	3402	0.034	0
18	3507	0.035	0
18	3607	0.036	0
18	3704	0.037	0
18	3806	0.038	0
18	3911	0.039	0
18	4012	0.04	0
18	4113	0.041	0
18	4218	0.042	0
18	4321	0.043	0
18	4417	0.044	0
18	4517	0.045	0
18	4627	0.046	0
18	4731	0.047	0
18	4827	0.048	0
18	4927	0.049	0
18	5031	0.05	0
18	5133	0.051	0
18	5231	0.052	0
18	5332	0.053	0
18	5437	0.054	0
18	5535	0.055	0
18	5640	0.056	0
18	5742	0.057	0
18	5841	0.058	0
18	5941	0.059	0
18	6048	0.06	0
18	6148	0.061	0
18	6250	0.062	0
18	6347	0.063	0
18	6452	0.064	0
18	6554	0.065	0
18	6653	0.066	0
18	6758	0.067	0
18	6858	0.068	0
18	6962	0.069	0
18	7056	0.07	0
18	7158	0.071	0
18	7269	0.072	0
18	7368	0.073	0
18	7466	0.074	0
18	7566	0.075	0
18	7672	0.076	0
18	7767	0.077	0
18	7866	0.078	0
18	7969	0.079	0
18	8080	0.08	0
18	8175	0.081	0
18	8275	0.082	0
18	8374	0.083	0
18	8484	0.084	0
18	8586	0.085	0
18	8681	0.086	0
18	8789	0.087	0
18	8894	0.088	0
18	8993	0.089	0
18	9087	0.09	0
18	9193	0.091	0
18	9296	0.092	0
18	9399	0.093	0
18	9497	0.094	0
18	9601	0.095	0
18	9699	0.096	0
18	9804	0.097	0
18	9908	0.098	0
19	69	0.001	0
19	164	0.002	0
19	258	0.003	0
19	354	0.004	0
19	460	0.005	0
19	559	0.006	0
19	660	0.007	0
19	760	0.008	0
19	870	0.009	0
19	967	0.01	0
19	1065	0.011	0
19	1162	0.012	0
19	1270	0.013	0
19	1376	0.014	0
19	1477	0.015	0
19	1581	0.016	0
19	1680	0.017	0
19	1779	0.018	0
19	1877	0.019	0
19	1985	0.02	0
19	2089	0.021	0
19	2189	0.022	0
19	2291	0.023	0
19	2393	0.024	0
19	2487	0.025	0
19	2589	0.026	0
19	2696	0.027	0
19	2803	0.028	0
19	2899	0.029	0
19	2999	0.03	0
19	3104	0.031	0
19	3199	0.032	0
19	3299	0.033	0
19	3403	0.034	0
19	3508	0.035	0
19	3608	0.036	0
19	3705	0.037	0
19	3807	0.038	0
19	3912	0.039	0
19	4013	0.04	0
19	4114	0.041	0
19	4219	0.042	0
19	4322	0.043	0
19	4418	0.044	0
19	4518	0.045	0
19	4628	0.046	0
19	4732	0.047	0
19	4828	0.048	0
19	4928	0.049	0
19	5032	0.05	0
19	5134	0.051	0
19	5232	0.052	0
19	5333	0.053	0
19	5438	0.054	0
19	5536	0.055	0
19	5641	0.056	0
19	5743	0.057	0
19	5842	0.058	0
19	5942	0.059	0
19	6049	0.06	0
19	6149	0.061	0
19	6251	0.062	0
19	6348	0.063	0
19	6453	0.064	0
19	6555	0.065	0
19	6654	0.066	0
19	6759	0.067	0
19	6859	0.068	0
19	6963	0.069	0
19	7057	0.07	0
19	7159	0.071	0
19	7270	0.072	0
19	7369	0.073	0
19	7467	0.074	0
19	7567	0.075	0
19	7673	0.076	0
19	7768	0.077	0
19	7867	0.078	0
19	7970	0.079	0
19	8081	0.08	0
19	8176	0.081	0
19	8276	0.082	0
19	8375	0.083	0
19	8485	0.084	0
19	8587	0.085	0
19	8682	0.086	0
19	8790	0.087	0
19	8895	0.088	0
19	8994	0.089	0
19	9088	0.09	0
19	9194	0.091	0
19	9297	0.092	0
19	9400	0.093	0
19	9498	0.094	0
19	9602	0.095	0
19	9700	0.096	0
19	9805	0.097	0
19	9909	0.098	0
20	70	0.001	1
20	74	0.001	0
20	165	0.002	1
20	168	0.002	0
20	259	0.003	1
20	262	0.003	0
20	355	0.004	2
20	358	0.004	1
20	359	0.004	0
20	461	0.005	1
20	466	0.005	0
20	560	0.006	1
20	567	0.006	0
20	661	0.007	1
20	669	0.007	0
20	761	0.008	2
20	768	0.008	1
20	771	0.008	0
20	871	0.009	1
20	875	0.009	0
20	968	0.01	1
20	975	0.01	0
20	1066	0.011	1
20	1073	0.011	0
20	1163	0.012	2
20	1170	0.012	1
20	1173	0.012	0
20	1271	0.013	1
20	1274	0.013	0
20	1377	0.014	1
20	1383	0.014	0
20	1478	0.015	2
20	1485	0.015	1
20	1488	0.015	0
20	1582	0.016	1
20	1585	0.016	0
20	1681	0.017	1
20	1684	0.017	0
20	1780	0.018	1
20	1785	0.018	0
20	1878	0.019	2
20	1885	0.019	1
20	1889	0.019	0
20	1986	0.02	1
20	1989	0.02	0
20	2090	0.021	1
20	2094	0.021	0
20	2190	0.022	1
20	2195	0.022	0
20	2292	0.023	2
20	2296	0.023	1
20	2300	0.023	0
20	2394	0.024	1
20	2397	0.024	0
20	2488	0.025	1
20	2491	0.025	0
20	2590	0.026	1
20	2593	0.026	0
20	2697	0.027	2
20	2703	0.027	1
20	2706	0.027	0
20	2804	0.028	1
20	2808	0.028	0
20	2900	0.029	1
20	2903	0.029	0
20	3000	0.03	2
20	3003	0.03	1
20	3005	0.03	0
20	3105	0.031	1
20	3109	0.031	0
20	3200	0.032	1
20	3207	0.032	0
20	3300	0.033	1
20	3307	0.033	0
20	3404	0.034	2
20	3412	0.034	1
20	3415	0.034	0
20	3509	0.035	1
20	3513	0.035	0
20	3609	0.036	1
20	3614	0.036	0
20	3706	0.037	1
20	3713	0.037	0
20	3808	0.038	2
20	3815	0.038	1
20	3818	0.038	0
20	3913	0.039	1
20	3917	0.039	0
20	4014	0.04	1
20	4019	0.04	0
20	4115	0.041	1
20	4123	0.041	0
20	4220	0.042	2
20	4227	0.042	1
20	4230	0.042	0
20	4323	0.043	1
20	4327	0.043	0
20	4419	0.044	1
20	4424	0.044	0
20	4519	0.045	2
20	4523	0.045	1
20	4526	0.045	0
20	4629	0.046	1
20	4633	0.046	0
20	4733	0.047	1
20	4737	0.047	0
20	4829	0.048	1
20	4833	0.048	0
20	4929	0.049	2
20	4934	0.049	1
20	4937	0.049	0
20	5033	0.05	1
20	5037	0.05	0
20	5135	0.051	1
20	5138	0.051	0
20	5233	0.052	1
20	5237	0.052	0
20	5334	0.053	2
20	5339	0.053	1
20	5341	0.053	0
20	5439	0.054	1
20	5443	0.054	0
20	5537	0.055	1
20	5544	0.055	0
20	5642	0.056	2
20	5646	0.056	1
20	5648	0.056	0
20	5744	0.057	1
20	5748	0.057	0
20	5843	0.058	1
20	5846	0.058	0
20	5943	0.059	1
20	5950	0.059	0
20	6050	0.06	2
20	6054	0.06	1
20	6056	0.06	0
20	6150	0.061	1
20	6154	0.061	0
20	6252	0.062	1
20	6256	0.062	0
20	6349	0.063	1
20	6356	0.063	0
20	6454	0.064	2
20	6458	0.064	1
20	6461	0.064	0
20	6556	0.065	1
20	6559	0.065	0
20	6655	0.066	1
20	6659	0.066	0
20	6760	0.067	1
20	6764	0.067	0
20	6860	0.068	2
20	6867	0.068	1
20	6871	0.068	0
20	6964	0.069	1
20	6968	0.069	0
20	7058	0.07	1
20	7062	0.07	0
20	7160	0.071	2
20	7165	0.071	1
20	7168	0.071	0
20	7271	0.072	1
20	7274	0.072	0
20	7370	0.073	1
20	7374	0.073	0
20	7468	0.074	1
20	7473	0.074	0
20	7568	0.075	2
20	7573	0.075	1
20	7575	0.075	0
20	7674	0.076	1
20	7677	0.076	0
20	7769	0.077	1
20	7776	0.077	0
20	7868	0.078	1
20	7875	0.078	0
20	7971	0.079	2
20	7978	0.079	1
20	7982	0.079	0
20	8082	0.08	1
20	8085	0.08	0
20	8177	0.081	1
20	8185	0.081	0
20	8277	0.082	1
20	8284	0.082	0
20	8376	0.083	2
20	8383	0.083	1
20	8386	0.083	0
20	8486	0.084	1
20	8490	0.084	0
20	8588	0.085	1
20	8592	0.085	0
20	8683	0.086	2
20	8690	0.086	1
20	8693	0.086	0
20	8791	0.087	1
20	8796	0.087	0
20	8896	0.088	1
20	8900	0.088	0
20	8995	0.089	1
20	8999	0.089	0
20	9089	0.09	2
20	9096	0.09	1
20	9099	0.09	0
20	9195	0.091	1
20	9199	0.091	0
20	9298	0.092	1
20	9301	0.092	0
20	9401	0.093	1
20	9405	0.093	0
20	9499	0.094	2
20	9507	0.094	1
20	9510	0.094	0
20	9603	0.095	1
20	9606	0.095	0
20	9701	0.096	1
20	9705	0.096	0
20	9806	0.097	1
20	9810	0.097	0
20	9910	0.098	2
20	9914	0.098	1
20	9917	0.098	0
21	71	0.001	0
21	156	0.002	0
21	250	0.003	0
21	346	0.004	0
21	452	0.005	1
21	462	0.005	0
21	561	0.006	0
21	662	0.007	0
21	762	0.008	0
21	862	0.009	0
21	969	0.01	1
21	976	0.01	0
21	1067	0.011	0
21	1164	0.012	0
21	1262	0.013	0
21	1378	0.014	1
21	1384	0.014	0
21	1479	0.015	0
21	1573	0.016	0
21	1672	0.017	0
21	1781	0.018	0
21	1879	0.019	1
21	1886	0.019	0
21	1977	0.02	0
21	2081	0.021	0
21	2191	0.022	0
21	2293	0.023	1
21	2297	0.023	0
21	2385	0.024	0
21	2479	0.025	0
21	2581	0.026	0
21	2698	0.027	0
21	2795	0.028	1
21	2805	0.028	0
21	2891	0.029	0
21	2991	0.03	0
21	3096	0.031	0
21	3201	0.032	1
21	3208	0.032	0
21	3301	0.033	0
21	3405	0.034	0
21	3510	0.035	0
21	3610	0.036	0
21	3707	0.037	1
21	3714	0.037	0
21	3809	0.038	0
21	3914	0.039	0
21	4015	0.04	0
21	4116	0.041	1
21	4124	0.041	0
21	4221	0.042	0
21	4324	0.043	0
21	4420	0.044	0
21	4520	0.045	0
21	4620	0.046	1
21	4630	0.046	0
21	4724	0.047	0
21	4830	0.048	0
21	4930	0.049	0
21	5024	0.05	1
21	5034	0.05	0
21	5126	0.051	0
21	5234	0.052	0
21	5335	0.053	0
21	5430	0.054	0
21	5538	0.055	1
21	5545	0.055	0
21	5643	0.056	0
21	5735	0.057	0
21	5834	0.058	0
21	5944	0.059	1
21	5951	0.059	0
21	6051	0.06	0
21	6141	0.061	0
21	6243	0.062	0
21	6350	0.063	0
21	6455	0.064	1
21	6459	0.064	0
21	6547	0.065	0
21	6646	0.066	0
21	6751	0.067	0
21	6861	0.068	1
21	6868	0.068	0
21	6965	0.069	0
21	7059	0.07	0
21	7161	0.071	0
21	7262	0.072	0
21	7371	0.073	1
21	7375	0.073	0
21	7469	0.074	0
21	7569	0.075	0
21	7665	0.076	0
21	7770	0.077	0
21	7869	0.078	1
21	7876	0.078	0
21	7972	0.079	0
21	8073	0.08	0
21	8178	0.081	0
21	8278	0.082	1
21	8285	0.082	0
21	8377	0.083	0
21	8477	0.084	0
21	8589	0.085	0
21	8684	0.086	0
21	8782	0.087	1
21	8792	0.087	0
21	8887	0.088	0
21	8996	0.089	0
21	9090	0.09	0
21	9186	0.091	1
21	9196	0.091	0
21	9289	0.092	0
21	9392	0.093	0
21	9500	0.094	0
21	9594	0.095	0
21	9692	0.096	1
21	9702	0.096	0
21	9797	0.097	0
21	9911	0.098	0
22	75	0.001	0.000553330362
22	76	0.001	0.000551217409
22	77	0.001	0.000102434818
22	78	0.001	0.000544654781
22	79	0.001	8.9309562e-005
22	80	0.001	0.000535915273
22	81	0.001	7.1830546e-005
22	82	0.001	0.00055072588
22	83	0.001	0.000534800824
22	84	0.001	6.9601648e-005
22	85	0.001	0.000553513851
22	86	0.001	0.000107027702
22	87	0.001	0.000535676329
22	88	0.001	7.1352658e-005
22	89	0.001	0.000559089146
22	90	0.001	0.00054967477
22	91	0.001	9.934954e-005
22	92	0.001	0.000106660724
22	93	0.001	0.00010145176
22	94	0.001	0.000118178292
22	169	0.002	0.00064902431
22	170	0.002	0.00019869908
22	171	0.002	0.000659991086
22	172	0.002	0.000653652227
22	173	0.002	0.000204869636
22	174	0.002	0.000633964343
22	175	0.002	0.000178619124
22	176	0.002	0.000607745819
22	177	0.002	0.000143661092
22	178	0.002	0.00065217764
22	179	0.002	0.000604402472
22	180	0.002	0.000139203296
22	181	0.002	0.000660541553
22	182	0.002	0.000214055404
22	183	0.002	0.000607028987
22	184	0.002	0.000142705316
22	185	0.002	0.000677267438
22	186	0.002	0.000213321448
22	187	0.002	0.00020290352
22	188	0.002	0.000236356584
22	263	0.003	0.00074837385
22	264	0.003	0.00029804862
22	265	0.003	0.00076665181
22	266	0.003	0.000756087045
22	267	0.003	0.000307304454
22	268	0.003	0.000723273905
22	269	0.003	0.000267928686
22	270	0.003	0.000679576365
22	271	0.003	0.000215491638
22	272	0.003	0.0007536294
22	273	0.003	0.00067400412
22	274	0.003	0.000208804944
22	275	0.003	0.000767569255
22	276	0.003	0.000321083106
22	277	0.003	0.000678381645
22	278	0.003	0.000214057974
22	279	0.003	0.00079544573
22	280	0.003	0.000319982172
22	281	0.003	0.00030435528
22	282	0.003	0.000354534876
22	360	0.004	0.00084772339
22	361	0.004	0.00039739816
22	362	0.004	0.000873312534
22	363	0.004	0.000858521863
22	364	0.004	0.000409739272
22	365	0.004	0.000812583467
22	366	0.004	0.000357238248
22	367	0.004	0.000751406911
22	368	0.004	0.000287322184
22	369	0.004	0.00085508116
22	370	0.004	0.000743605768
22	371	0.004	0.000278406592
22	372	0.004	0.000874596957
22	373	0.004	0.000428110808
22	374	0.004	0.000749734303
22	375	0.004	0.000285410632
22	376	0.004	0.000913624022
22	377	0.004	0.000426642896
22	378	0.004	0.00040580704
22	379	0.004	0.000472713168
22	380	0.004	3.1802314e-005
22	469	0.005	0.00094707293
22	470	0.005	0.0004967477
22	471	0.005	0.000979973258
22	472	0.005	0.000960956681
22	473	0.005	0.00051217409
22	474	0.005	0.000901893029
22	475	0.005	0.00044654781
22	476	0.005	0.000823237457
22	477	0.005	0.00035915273
22	478	0.005	0.00095653292
22	479	0.005	0.000813207416
22	480	0.005	0.00034800824
22	481	0.005	0.000981624659
22	482	0.005	0.00053513851
22	483	0.005	8.8652361e-005
22	484	0.005	0.000821086961
22	485	0.005	0.00035676329
22	486	0.005	0.00059089146
22	487	0.005	4.642247e-005
22	488	0.005	0.00053330362
22	489	0.005	6.3391499e-005
22	490	0.005	0.0005072588
22	491	0.005	0.000149980606
22	492	0.005	8.6633982e-005
22	493	0.005	5.798468e-005
22	570	0.006	0.000882809064
22	571	0.006	0.000417609888
22	572	0.006	0.000642166212
22	573	0.006	0.000195680063
22	574	0.006	0.000892439619
22	575	0.006	0.000428115948
22	576	0.006	0.000709069752
22	577	0.006	0.00059609724
22	578	0.006	0.00014577201
22	579	0.006	0.000639964344
22	580	0.006	0.000614608908
22	581	0.006	0.000165826317
22	582	0.006	0.000991202591
22	583	0.006	0.000535857372
22	584	0.006	8.0512153e-005
22	585	0.006	0.000895068003
22	586	0.006	0.000430983276
22	587	0.006	0.00060871056
22	588	0.006	0.000268158898
22	589	0.006	0.000193294706
22	590	0.006	0.00015943644
22	672	0.007	0.000952410712
22	673	0.007	0.000487211536
22	674	0.007	0.000749193914
22	675	0.007	0.000302707765
22	676	0.007	0.000963792277
22	677	0.007	0.000499468606
22	678	0.007	3.5144935e-005
22	679	0.007	0.000827248044
22	680	0.007	0.00069544678
22	681	0.007	0.00024512155
22	682	0.007	0.000746625068
22	683	0.007	0.000717043726
22	684	0.007	0.000268261135
22	685	0.007	0.000625166934
22	686	0.007	0.000169821715
22	687	0.007	0.000966898549
22	688	0.007	0.000502813822
22	689	0.007	3.8729095e-005
22	690	0.007	0.00071016232
22	691	0.007	2.201236e-005
22	692	0.007	0.00038633719
22	693	0.007	0.00029995543
22	694	0.007	0.0002608882
22	772	0.008	0.000556813184
22	773	0.008	9.1614008e-005
22	774	0.008	0.000856221616
22	775	0.008	0.000409735467
22	776	0.008	0.000570821264
22	777	0.008	0.000106497593
22	778	0.008	0.000945426336
22	779	0.008	0.00079479632
22	780	0.008	0.00034447109
22	781	0.008	0.000853285792
22	782	0.008	0.000819478544
22	783	0.008	0.000370695953
22	784	0.008	0.000714476496
22	785	0.008	0.000259131277
22	786	0.008	0.000574644368
22	787	0.008	0.000110559641
22	788	0.008	0.00081161408
22	789	0.008	0.000504515482
22	790	0.008	0.000406616154
22	791	0.008	0.00036233996
22	792	0.008	6.3604628e-005
22	878	0.009	0.00089414586
22	879	0.009	0.00044382063
22	880	0.009	0.000959946516
22	881	0.009	0.000921913362
22	882	0.009	0.000473130771
22	883	0.009	0.000803786058
22	884	0.009	0.000348440839
22	885	0.009	0.000646474914
22	886	0.009	0.000182390187
22	887	0.009	0.00091306584
22	888	0.009	0.000626414832
22	889	0.009	0.000161215656
22	890	0.009	0.000963249318
22	891	0.009	0.000516763169
22	892	0.009	7.027702e-005
22	893	0.009	0.000642173922
22	894	0.009	0.000177850251
22	895	0.009	0.000622693774
22	896	0.009	0.000513276878
22	897	0.009	2.434818e-005
22	898	0.009	0.00046379172
22	899	0.009	0.00018178292
22	900	0.009	6.660724e-005
22	901	0.009	1.45176e-005
22	979	0.01	0.00069601648
22	980	0.01	0.000230817304
22	981	0.01	0.000623790871
22	982	0.01	0.000177304722
22	983	0.01	0.00071352658
22	984	0.01	0.000249202909
22	985	0.01	0.000740872066
22	986	0.01	0.0009934954
22	987	0.01	0.00054317017
22	988	0.01	0.000619937602
22	989	0.01	0.000575565589
22	990	0.01	0.000126782998
22	991	0.01	0.00089309562
22	992	0.01	0.000437750401
22	993	0.01	0.00071830546
22	994	0.01	0.000254220733
22	995	0.01	0.00056524348
22	996	0.01	0.000299961212
22	997	0.01	9.284494e-005
22	998	0.01	0.000173267964
22	999	0.01	0.00011596936
22	1076	0.011	0.000765618128
22	1077	0.011	0.000300418952
22	1078	0.011	0.000730818573
22	1079	0.011	0.000284332424
22	1080	0.011	0.000784879238
22	1081	0.011	0.000320555567
22	1082	0.011	0.000859050358
22	1083	0.011	0.00064251971
22	1084	0.011	0.00019219448
22	1085	0.011	0.000726598326
22	1086	0.011	0.000678000407
22	1087	0.011	0.000229217816
22	1088	0.011	0.000982405182
22	1089	0.011	0.000527059963
22	1090	0.011	7.1714744e-005
22	1091	0.011	0.000790136006
22	1092	0.011	0.000326051279
22	1093	0.011	0.00066669524
22	1094	0.011	0.000418139504
22	1095	0.011	0.000279928688
22	1096	0.011	0.00021742112
22	1174	0.012	0.000835219776
22	1175	0.012	0.0003700206
22	1176	0.012	0.000837846275
22	1177	0.012	0.000391360126
22	1178	0.012	0.000856231896
22	1179	0.012	0.000391908225
22	1180	0.012	0.00097722865
22	1181	0.012	0.00074186925
22	1182	0.012	0.00029154402
22	1183	0.012	0.00083325905
22	1184	0.012	0.000780435225
22	1185	0.012	0.000331652634
22	1186	0.012	0.000616369525
22	1187	0.012	0.000161024306
22	1188	0.012	0.000861966552
22	1189	0.012	0.000397881825
22	1190	0.012	0.000768147
22	1191	0.012	0.000536317796
22	1192	0.012	0.000386589412
22	1193	0.012	0.00031887288
22	1194	0.012	9.5406942e-005
22	1276	0.013	0.00084121879
22	1277	0.013	0.00039089356
22	1278	0.013	0.000939919774
22	1279	0.013	0.000882870043
22	1280	0.013	0.000434087452
22	1281	0.013	0.000705679087
22	1282	0.013	0.000250333868
22	1283	0.013	0.000933797098
22	1284	0.013	0.000469712371
22	1285	0.013	5.627644e-006
22	1286	0.013	0.00086959876
22	1287	0.013	0.000904821424
22	1288	0.013	0.000439622248
22	1289	0.013	0.000944873977
22	1290	0.013	0.000498387828
22	1291	0.013	5.1901679e-005
22	1292	0.013	0.000927584554
22	1293	0.013	0.000463260883
22	1294	0.013	0.000654496088
22	1295	0.013	0.000493250136
22	1296	0.013	0.00042032464
22	1297	0.013	0.000213585234
22	1298	0.013	4.6580498e-005
22	1387	0.014	0.000985304861
22	1388	0.014	0.00053652227
22	1389	0.014	0.000794988649
22	1390	0.014	0.00033964343
22	1391	0.014	0.000541542917
22	1392	0.014	7.745819e-005
22	1393	0.014	0.00097105052
22	1394	0.014	0.000974423072
22	1395	0.014	0.000509223896
22	1396	0.014	0.00060541553
22	1397	0.014	0.000158929381
22	1398	0.014	0.000998937212
22	1399	0.014	0.000534613541
22	1400	0.014	7.028987e-005
22	1401	0.014	0.00077267438
22	1402	0.014	0.00094056833
22	1403	0.014	0.0004902431
22	1404	0.014	0.00059991086
22	1405	0.014	8.7739679e-005
22	1406	0.014	0.0005217764
22	1407	0.014	4.402472e-005
22	1408	0.014	0.000331763526
22	1409	0.014	3.991787e-005
22	1410	0.014	0.000153241222
22	1411	0.014	7.250228e-005
22	1489	0.015	0.000578825544
22	1490	0.015	0.000113626368
22	1491	0.015	0.000712443232
22	1492	0.015	0.000265957083
22	1493	0.015	0.000605966199
22	1494	0.015	0.000141642528
22	1495	0.015	0.000890852672
22	1496	0.015	0.00058959264
22	1497	0.015	0.00013926741
22	1498	0.015	0.000706571584
22	1499	0.015	0.000638957088
22	1500	0.015	0.000190174497
22	1501	0.015	0.000884298211
22	1502	0.015	0.000428952992
22	1503	0.015	0.000613373463
22	1504	0.015	0.000149288736
22	1505	0.015	0.00062322816
22	1506	0.015	0.000449941818
22	1507	0.015	0.000259901946
22	1508	0.015	0.00017395404
22	1509	0.015	9.030964e-006
22	1586	0.016	0.00068894218
22	1587	0.016	0.00023861695
22	1588	0.016	0.000813232308
22	1589	0.016	0.000741391906
22	1590	0.016	0.000292609315
22	1591	0.016	0.000973607773
22	1592	0.016	0.000518262554
22	1593	0.016	6.2917335e-005
22	1594	0.016	0.000685204009
22	1595	0.016	0.000221119282
22	1596	0.016	0.00072467992
22	1597	0.016	0.000648427192
22	1598	0.016	0.000183228016
22	1599	0.016	0.000819470934
22	1600	0.016	0.000372984785
22	1601	0.016	0.000677318857
22	1602	0.016	0.000212995186
22	1603	0.016	0.00056812011
22	1604	0.016	0.00036656267
22	1605	0.016	0.0002754058
22	1606	0.016	0.000127209256
22	1686	0.017	0.00078829172
22	1687	0.017	0.00033796649
22	1688	0.017	0.000919893032
22	1689	0.017	0.000843826724
22	1690	0.017	0.000395044133
22	1691	0.017	0.000607572116
22	1692	0.017	0.000152226897
22	1693	0.017	0.000757034555
22	1694	0.017	0.000292949828
22	1695	0.017	0.00082613168
22	1696	0.017	0.00071802884
22	1697	0.017	0.000252829664
22	1698	0.017	0.000926498636
22	1699	0.017	0.000480012487
22	1700	0.017	3.3526338e-005
22	1701	0.017	0.000748671515
22	1702	0.017	0.000284347844
22	1703	0.017	0.000686298402
22	1704	0.017	0.000473223394
22	1705	0.017	0.00037685756
22	1706	0.017	0.000245387548
22	1707	0.017	2.6553756e-005
22	1788	0.018	0.000946261542
22	1789	0.018	0.000497478951
22	1790	0.018	0.000696881678
22	1791	0.018	0.000241536459
22	1792	0.018	0.000828865101
22	1793	0.018	0.000364780374
22	1794	0.018	0.00092758344
22	1795	0.018	0.000787630488
22	1796	0.018	0.000322431312
22	1797	0.018	0.000587040189
22	1798	0.018	0.00014055404
22	1799	0.018	0.000820024173
22	1800	0.018	0.000355700502
22	1801	0.018	0.000804476694
22	1802	0.018	0.00088764126
22	1803	0.018	0.00043731603
22	1804	0.018	0.000579884118
22	1805	0.018	4.869636e-005
22	1806	0.018	0.00047830932
22	1807	0.018	0.00036356584
22	1808	0.018	0.00013321448
22	1809	0.018	2.90352e-005
22	1890	0.019	0.000857232136
22	1891	0.019	0.00039203296
22	1892	0.019	0.000694067891
22	1893	0.019	0.000247581742
22	1894	0.019	0.000891376831
22	1895	0.019	0.00042705316
22	1896	0.019	0.000922654986
22	1897	0.019	0.0009869908
22	1898	0.019	0.00053666557
22	1899	0.019	0.000686544842
22	1900	0.019	0.000599913769
22	1901	0.019	0.000151131178
22	1902	0.019	0.00078619124
22	1903	0.019	0.000330846021
22	1904	0.019	0.000900695647
22	1905	0.019	0.00043661092
22	1906	0.019	0.00057976108
22	1907	0.019	0.000481744132
22	1908	0.019	8.634034e-005
22	1909	0.019	0.000239875204
22	1910	0.019	0.00013048696
22	1911	0.019	4.0833278e-005
22	1990	0.02	0.00063601511
22	1991	0.02	0.00018568988
22	1992	0.02	0.000793205566
22	1993	0.02	0.000702348587
22	1994	0.02	0.000253565996
22	1995	0.02	0.000875500802
22	1996	0.02	0.000420155583
22	1997	0.02	0.000972526193
22	1998	0.02	0.000508441466
22	1999	0.02	4.4356739e-005
22	2000	0.02	0.00068121284
22	2001	0.02	0.000926833784
22	2002	0.02	0.000461634608
22	2003	0.02	0.000801095593
22	2004	0.02	0.000354609444
22	2005	0.02	0.000962729489
22	2006	0.02	0.000498405818
22	2007	0.02	3.4082147e-005
22	2008	0.02	0.000599922424
22	2009	0.02	0.000346535928
22	2010	0.02	0.00023193872
22	2011	0.02	0.00015901157
22	2096	0.021	0.00073536465
22	2097	0.021	0.00028503942
22	2098	0.021	0.00089986629
22	2099	0.021	0.000804783405
22	2100	0.021	0.000356000814
22	2101	0.021	0.000964810364
22	2102	0.021	0.000509465145
22	2103	0.021	5.4119926e-005
22	2104	0.021	0.000580272012
22	2105	0.021	0.000116187285
22	2106	0.021	0.0007826646
22	2107	0.021	0.000996435432
22	2108	0.021	0.000531236256
22	2109	0.021	0.000908123295
22	2110	0.021	0.000461637146
22	2111	0.021	1.5150997e-005
22	2112	0.021	0.000569758476
22	2113	0.021	0.000105434805
22	2114	0.021	0.000718100716
22	2115	0.021	0.000453196652
22	2116	0.021	0.00033339048
22	2117	0.021	6.603708e-005
22	2118	0.021	0.000277189862
22	2119	0.021	6.527014e-006
22	2197	0.022	0.000907218223
22	2198	0.022	0.000458435632
22	2199	0.022	0.000598774707
22	2200	0.022	0.000143429488
22	2201	0.022	0.000652102558
22	2202	0.022	0.000188017831
22	2203	0.022	0.00088411636
22	2204	0.022	0.000600837904
22	2205	0.022	0.000135638728
22	2206	0.022	0.000568664848
22	2207	0.022	0.000122178699
22	2208	0.022	0.000641111134
22	2209	0.022	0.000176787463
22	2210	0.022	0.000836279008
22	2211	0.022	0.00083471419
22	2212	0.022	0.00038438896
22	2213	0.022	0.000559857376
22	2214	0.022	9.653041e-006
22	2215	0.022	0.00043484224
22	2216	0.022	0.000395368154
22	2217	0.022	0.000113187738
22	2301	0.023	0.00056087045
22	2302	0.023	0.000112087859
22	2303	0.023	0.000688084269
22	2304	0.023	0.00023273905
22	2305	0.023	0.000723933104
22	2306	0.023	0.000259848377
22	2307	0.023	0.00098556812
22	2308	0.023	0.000670439552
22	2309	0.023	0.000205240376
22	2310	0.023	0.00067569255
22	2311	0.023	0.000229206401
22	2312	0.023	0.000712463792
22	2313	0.023	0.000248140121
22	2314	0.023	0.0009544573
22	2315	0.023	0.00093406373
22	2316	0.023	0.0004837385
22	2317	0.023	0.0006665181
22	2318	0.023	0.000536294
22	2319	0.023	0.000513546446
22	2320	0.023	3.341327e-005
22	2321	0.023	0.000219848462
22	2322	0.023	8.701988e-005
22	2323	0.023	7.2635592e-005
22	2398	0.024	0.00058308804
22	2399	0.024	0.00013276281
22	2400	0.024	0.000773178824
22	2401	0.024	0.000663305268
22	2402	0.024	0.000214522677
22	2403	0.024	0.000777393831
22	2404	0.024	0.000322048612
22	2405	0.024	0.00079576365
22	2406	0.024	0.000331678923
22	2407	0.024	0.00063774576
22	2408	0.024	0.0007400412
22	2409	0.024	0.000274842024
22	2410	0.024	0.000782720252
22	2411	0.024	0.000336234103
22	2412	0.024	0.00078381645
22	2413	0.024	0.000319492779
22	2414	0.024	0.000631724738
22	2415	0.024	0.000326509186
22	2416	0.024	0.00018847164
22	2417	0.024	0.000190813884
22	2492	0.025	0.00068243758
22	2493	0.025	0.00023211235
22	2494	0.025	0.000879839548
22	2495	0.025	0.000765740086
22	2496	0.025	0.000316957495
22	2497	0.025	0.000866703393
22	2498	0.025	0.000411358174
22	2499	0.025	0.000867594196
22	2500	0.025	0.000403509469
22	2501	0.025	0.00073919752
22	2502	0.025	0.000809642848
22	2503	0.025	0.000344443672
22	2504	0.025	0.000889747954
22	2505	0.025	0.000443261805
22	2506	0.025	0.000855169108
22	2507	0.025	0.000390845437
22	2508	0.025	0.00074990303
22	2509	0.025	0.00043316991
22	2510	0.025	0.0002899234
22	2511	0.025	0.000308992176
22	2595	0.026	0.00078178712
22	2596	0.026	0.00033146189
22	2597	0.026	0.000986500272
22	2598	0.026	0.000868174904
22	2599	0.026	0.000419392313
22	2600	0.026	0.000956012955
22	2601	0.026	0.000500667736
22	2602	0.026	4.5322517e-005
22	2603	0.026	0.000939424742
22	2604	0.026	0.000475340015
22	2605	0.026	1.1255288e-005
22	2606	0.026	0.00084064928
22	2607	0.026	0.000879244496
22	2608	0.026	0.00041404532
22	2609	0.026	0.000996775656
22	2610	0.026	0.000550289507
22	2611	0.026	0.000103803358
22	2612	0.026	0.000926521766
22	2613	0.026	0.000462198095
22	2614	0.026	0.000868081322
22	2615	0.026	0.000539830634
22	2616	0.026	0.00039137516
22	2617	0.026	0.000427170468
22	2618	0.026	9.3160996e-005
22	2707	0.027	0.000970609722
22	2708	0.027	0.000521827131
22	2709	0.027	0.000589977298
22	2710	0.027	0.000134632079
22	2711	0.027	0.000547170561
22	2712	0.027	8.3085834e-005
22	2713	0.027	0.00094210104
22	2714	0.027	0.000948846144
22	2715	0.027	0.000483646968
22	2716	0.027	0.000657317209
22	2717	0.027	0.00021083106
22	2718	0.027	0.000997874424
22	2719	0.027	0.000533550753
22	2720	0.027	6.9227082e-005
22	2721	0.027	0.000986259614
22	2722	0.027	0.00088113666
22	2723	0.027	0.00043081143
22	2724	0.027	0.000646491358
22	2725	0.027	7.304454e-005
22	2726	0.027	0.00049282692
22	2727	0.027	1.8447792e-005
22	2728	0.027	0.00054534876
22	2729	0.027	0.00019982172
22	2730	0.027	4.35528e-005
22	2731	0.027	0.000104437906
22	2809	0.028	0.0009804862
22	2810	0.028	0.00053016097
22	2811	0.028	0.000753152082
22	2812	0.028	0.000624261949
22	2813	0.028	0.000175479358
22	2814	0.028	0.00067928686
22	2815	0.028	0.000223941641
22	2816	0.028	0.000619001107
22	2817	0.028	0.00015491638
22	2818	0.028	0.00059427868
22	2819	0.028	0.000553248616
22	2820	0.028	8.804944e-005
22	2821	0.028	0.000764344911
22	2822	0.028	0.000317858762
22	2823	0.028	0.000604903411
22	2824	0.028	0.00014057974
22	2825	0.028	0.000663527052
22	2826	0.028	7.983574e-005
22	2827	0.028	0.000306482444
22	2828	0.028	0.00014500456
22	2829	0.028	0.000222616198
22	2904	0.029	0.00062951051
22	2905	0.029	0.00017918528
22	2906	0.029	0.000859812806
22	2907	0.029	0.000726696767
22	2908	0.029	0.000277914176
22	2909	0.029	0.000768596422
22	2910	0.029	0.000313251203
22	2911	0.029	0.000690831653
22	2912	0.029	0.000226746926
22	2913	0.029	0.00069573044
22	2914	0.029	0.000622850264
22	2915	0.029	0.000157651088
22	2916	0.029	0.000871372613
22	2917	0.029	0.000424886464
22	2918	0.029	0.000676256069
22	2919	0.029	0.000211932398
22	2920	0.029	0.000781705344
22	2921	0.029	0.000413143168
22	2922	0.029	0.00024645632
22	2923	0.029	0.00034079449
22	3006	0.03	0.00072886005
22	3007	0.03	0.00027853482
22	3008	0.03	0.00096647353
22	3009	0.03	0.000829131585
22	3010	0.03	0.000380348994
22	3011	0.03	0.000857905984
22	3012	0.03	0.000402560765
22	3013	0.03	0.000762662199
22	3014	0.03	0.000298577472
22	3015	0.03	0.0007971822
22	3016	0.03	0.000692451912
22	3017	0.03	0.000227252736
22	3018	0.03	0.000978400315
22	3019	0.03	0.000531914166
22	3020	0.03	8.5428017e-005
22	3021	0.03	0.000747608727
22	3022	0.03	0.000283285056
22	3023	0.03	0.000899883636
22	3024	0.03	0.000519803892
22	3025	0.03	0.00034790808
22	3026	0.03	0.000458972782
22	3027	0.03	7.3134254e-005
22	3028	0.03	1.8061928e-005
22	3111	0.031	0.00082820959
22	3112	0.031	0.00037788436
22	3113	0.031	0.000626464616
22	3114	0.031	0.000931566403
22	3115	0.031	0.000482783812
22	3116	0.031	0.000947215546
22	3117	0.031	0.000491870327
22	3118	0.031	3.6525108e-005
22	3119	0.031	0.000834492745
22	3120	0.031	0.000370408018
22	3121	0.031	0.00089863396
22	3122	0.031	0.00076205356
22	3123	0.031	0.000296854384
22	3124	0.031	0.000638941868
22	3125	0.031	0.000192455719
22	3126	0.031	0.000818961385
22	3127	0.031	0.000354637714
22	3128	0.031	0.000577151074
22	3129	0.031	0.000179794978
22	3130	0.031	3.4001221e-005
22	3131	0.031	0.00044935984
22	3132	0.031	0.00013624022
22	3133	0.031	8.572e-008
22	3211	0.032	0.000831655208
22	3212	0.032	0.000366456032
22	3213	0.032	0.00074596957
22	3214	0.032	0.000299483421
22	3215	0.032	0.000890314043
22	3216	0.032	0.000425990372
22	3217	0.032	0.000695329366
22	3218	0.032	0.00092755913
22	3219	0.032	0.0004772339
22	3220	0.032	0.00073312534
22	3221	0.032	0.00058521863
22	3222	0.032	0.000136436039
22	3223	0.032	0.000581179889
22	3224	0.032	0.00012583467
22	3225	0.032	0.000906323291
22	3226	0.032	0.000442238564
22	3227	0.032	0.0005508116
22	3228	0.032	0.000254418512
22	3229	0.032	2.690867e-005
22	3230	0.032	0.000286455702
22	3231	0.032	0.00010153748
22	3310	0.033	0.000901256856
22	3311	0.033	0.00043605768
22	3312	0.033	0.000852997272
22	3313	0.033	0.000406511123
22	3314	0.033	0.000961666701
22	3315	0.033	0.00049734303
22	3316	0.033	3.3019359e-005
22	3317	0.033	0.000813507658
22	3318	0.033	0.00057658344
22	3319	0.033	0.00012625821
22	3320	0.033	0.000839786064
22	3321	0.033	0.000687653448
22	3322	0.033	0.000238870857
22	3323	0.033	0.000670489451
22	3324	0.033	0.000215144232
22	3325	0.033	0.000978153837
22	3326	0.033	0.00051406911
22	3327	0.033	4.9984383e-005
22	3328	0.033	0.00065226336
22	3329	0.033	0.000372596804
22	3330	0.033	0.000393116426
22	3331	0.033	0.00020298924
22	3417	0.034	0.000970858504
22	3418	0.034	0.000505659328
22	3419	0.034	0.000960024974
22	3420	0.034	0.000513538825
22	3421	0.034	6.7052676e-005
22	3422	0.034	0.000568695688
22	3423	0.034	0.000104372017
22	3424	0.034	0.00093168595
22	3425	0.034	0.00067593298
22	3426	0.034	0.00022560775
22	3427	0.034	0.000946446788
22	3428	0.034	0.000790088266
22	3429	0.034	0.000341305675
22	3430	0.034	0.000759799013
22	3431	0.034	0.000304453794
22	3432	0.034	0.000585899656
22	3433	0.034	0.000121814929
22	3434	0.034	0.00075371512
22	3435	0.034	4.0460152e-005
22	3436	0.034	0.000490775096
22	3437	0.034	0.00049977715
22	3438	0.034	0.000304441
22	3439	0.034	4.9864242e-005
22	3440	0.034	5.3107512e-005
22	3515	0.035	0.000892523084
22	3516	0.035	0.000443740493
22	3517	0.035	0.000849108575
22	3518	0.035	0.000393763356
22	3519	0.035	0.000657730202
22	3520	0.035	0.000193645475
22	3521	0.035	0.00085516688
22	3522	0.035	0.000575260976
22	3523	0.035	0.0001100618
22	3524	0.035	0.000620566527
22	3525	0.035	0.000174080378
22	3526	0.035	0.000640048346
22	3527	0.035	0.000175724675
22	3528	0.035	0.000608953388
22	3529	0.035	0.00077528252
22	3530	0.035	0.00032495729
22	3531	0.035	0.000606437874
22	3532	0.035	0.00040589276
22	3533	0.035	0.000168042534
22	3534	0.035	0.000159768236
22	3617	0.036	0.000994957902
22	3618	0.036	0.000546175311
22	3619	0.036	0.000938418137
22	3620	0.036	0.000483072918
22	3621	0.036	2.7727699e-005
22	3622	0.036	0.000729560748
22	3623	0.036	0.000265476021
22	3624	0.036	0.00095661864
22	3625	0.036	0.000644862624
22	3626	0.036	0.000179663448
22	3627	0.036	0.000727594229
22	3628	0.036	0.00028110808
22	3629	0.036	0.000711401004
22	3630	0.036	0.000247077333
22	3631	0.036	0.00072713168
22	3632	0.036	0.00087463206
22	3633	0.036	0.00042430683
22	3634	0.036	0.000713098598
22	3635	0.036	9.739272e-005
22	3636	0.036	0.00050734452
22	3637	0.036	0.000286220826
22	3638	0.036	0.00026642896
22	3639	0.036	5.80704e-005
22	3717	0.037	0.000714464272
22	3718	0.037	0.000249265096
22	3719	0.037	0.000834621931
22	3720	0.037	0.000388135782
22	3721	0.037	0.000782753662
22	3722	0.037	0.000318429991
22	3723	0.037	0.000845309972
22	3724	0.037	0.0009739816
22	3725	0.037	0.00052365637
22	3726	0.037	0.000819759322
22	3727	0.037	0.000648610129
22	3728	0.037	0.000199827538
22	3729	0.037	0.00057238248
22	3730	0.037	0.000117037261
22	3731	0.037	0.000801391294
22	3732	0.037	0.000337306567
22	3733	0.037	0.00060879628
22	3734	0.037	0.000404399118
22	3735	0.037	7.333114e-005
22	3736	0.037	0.000373089684
22	3737	0.037	0.00015952216
22	3820	0.038	0.00078406592
22	3821	0.038	0.000318866744
22	3822	0.038	0.000941649633
22	3823	0.038	0.000495163484
22	3824	0.038	4.8677335e-005
22	3825	0.038	0.00085410632
22	3826	0.038	0.000389782649
22	3827	0.038	0.000963488264
22	3828	0.038	0.00062300591
22	3829	0.038	0.00017268068
22	3830	0.038	0.000926420046
22	3831	0.038	0.000751044947
22	3832	0.038	0.000302262356
22	3833	0.038	0.000661692042
22	3834	0.038	0.000206346823
22	3835	0.038	0.00087322184
22	3836	0.038	0.000409137113
22	3837	0.038	0.00071024804
22	3838	0.038	0.00052257741
22	3839	0.038	0.000479750408
22	3840	0.038	0.00026097392
22	3841	0.038	8.1666556e-005
22	3842	0.038	3.308077e-005
22	3919	0.039	0.000853479765
22	3920	0.039	0.000404697174
22	3921	0.039	0.000751001604
22	3922	0.039	0.000295656385
22	3923	0.039	0.000945052386
22	3924	0.039	0.000480967659
22	3925	0.039	1.6882932e-005
22	3926	0.039	0.0008116998
22	3927	0.039	0.000853667568
22	3928	0.039	0.000388468392
22	3929	0.039	0.000602191186
22	3930	0.039	0.000155705037
22	3931	0.039	0.000925458978
22	3932	0.039	0.000461135307
22	3933	0.039	0.000640755702
22	3934	0.039	0.00072235545
22	3935	0.039	0.00027203022
22	3936	0.039	0.000586411132
22	3937	0.039	0.00036242568
22	3938	0.039	0.000199844848
22	3939	0.039	0.000139741494
22	4022	0.04	0.000955914583
22	4023	0.04	0.000507131992
22	4024	0.04	0.000840311166
22	4025	0.04	0.000384965947
22	4026	0.04	0.000552798205
22	4027	0.04	8.8713478e-005
22	4028	0.04	0.00091315156
22	4029	0.04	0.000923269216
22	4030	0.04	0.00045807004
22	4031	0.04	0.000709218888
22	4032	0.04	0.000262732739
22	4033	0.04	0.000996811636
22	4034	0.04	0.000532487965
22	4035	0.04	6.8164294e-005
22	4036	0.04	0.000758933994
22	4037	0.04	0.00082170499
22	4038	0.04	0.00037137976
22	4039	0.04	0.000693071856
22	4040	0.04	5.8349401e-005
22	4041	0.04	0.00046387744
22	4042	0.04	0.00031802314
22	4043	0.04	0.000246402218
22	4044	0.04	1.460332e-005
22	4127	0.041	0.000992870864
22	4128	0.041	0.000527671688
22	4129	0.041	0.00081624659
22	4130	0.041	0.000369760441
22	4131	0.041	0.000603840623
22	4132	0.041	0.000139516952
22	4133	0.041	0.000877112286
22	4134	0.041	0.00092105453
22	4135	0.041	0.0004707293
22	4136	0.041	0.00079973258
22	4137	0.041	0.00060956681
22	4138	0.041	0.000160784219
22	4139	0.041	0.000929620728
22	4140	0.041	0.000474275509
22	4141	0.041	1.893029e-005
22	4142	0.041	0.000624628751
22	4143	0.041	0.000160544024
22	4144	0.041	0.0005653292
22	4145	0.041	6.2472512e-005
22	4146	0.041	0.000436201432
22	4147	0.041	2.040407e-005
22	4148	0.041	0.000353062942
22	4149	0.041	0.00011605508
22	4232	0.042	0.000597273336
22	4233	0.042	0.00013207416
22	4234	0.042	0.000923274292
22	4235	0.042	0.000476788143
22	4236	0.042	3.0301994e-005
22	4237	0.042	0.000675193281
22	4238	0.042	0.00021086961
22	4239	0.042	0.000995290578
22	4240	0.042	0.00057007884
22	4241	0.042	0.00011975361
22	4242	0.042	0.000906393304
22	4243	0.042	0.000712001628
22	4244	0.042	0.000263219037
22	4245	0.042	0.000563585071
22	4246	0.042	0.000108239852
22	4247	0.042	0.000696459297
22	4248	0.042	0.00023237457
22	4249	0.042	0.00066678096
22	4250	0.042	0.000554379724
22	4251	0.042	0.000459723666
22	4252	0.042	0.00021750684
22	4253	0.042	0.00011346887
22	4254	0.042	1.3054028e-005
22	4329	0.043	0.000814436446
22	4330	0.043	0.000365653855
22	4331	0.043	0.000652894633
22	4332	0.043	0.000197549414
22	4333	0.043	0.000768289843
22	4334	0.043	0.000304205116
22	4335	0.043	0.00076823272
22	4336	0.043	0.000666874984
22	4337	0.043	0.000201675808
22	4338	0.043	0.000583815845
22	4339	0.043	0.000137329696
22	4340	0.043	0.000746545939
22	4341	0.043	0.000282222268
22	4342	0.043	0.000672558016
22	4343	0.043	0.00066942838
22	4344	0.043	0.00021910315
22	4345	0.043	0.00056638439
22	4346	0.043	0.0003189586
22	4347	0.043	0.000231647162
22	4348	0.043	0.000119714752
22	4426	0.044	0.000916871264
22	4427	0.044	0.000468088673
22	4428	0.044	0.000742204195
22	4429	0.044	0.000286858976
22	4430	0.044	0.000840120389
22	4431	0.044	0.000376035662
22	4432	0.044	0.00086968448
22	4433	0.044	0.000736476632
22	4434	0.044	0.000271277456
22	4435	0.044	0.000690843547
22	4436	0.044	0.000244357398
22	4437	0.044	0.000817898597
22	4438	0.044	0.000353574926
22	4439	0.044	0.000790736308
22	4440	0.044	0.00076877792
22	4441	0.044	0.00031845269
22	4442	0.044	0.000673045114
22	4443	0.044	1.9306082e-005
22	4444	0.044	0.00042041036
22	4445	0.044	0.000349825454
22	4446	0.044	0.000226375476
22	4527	0.045	0.000570523491
22	4528	0.045	0.0001217409
22	4529	0.045	0.000831513757
22	4530	0.045	0.000376168538
22	4531	0.045	0.000911950935
22	4532	0.045	0.000447866208
22	4533	0.045	0.00097113624
22	4534	0.045	0.00080607828
22	4535	0.045	0.000340879104
22	4536	0.045	0.000797871249
22	4537	0.045	0.0003513851
22	4538	0.045	0.000889251255
22	4539	0.045	0.000424927584
22	4540	0.045	0.0009089146
22	4541	0.045	0.00086812746
22	4542	0.045	0.00041780223
22	4543	0.045	0.000779705838
22	4544	0.045	0.00052186212
22	4545	0.045	0.000468003746
22	4546	0.045	0.0003330362
22	4547	0.045	7.2588e-005
22	4548	0.045	2.7092892e-005
22	4634	0.046	0.000967477
22	4635	0.046	0.00051715177
22	4636	0.046	0.000886366562
22	4637	0.046	0.000672958309
22	4638	0.046	0.000224175718
22	4639	0.046	0.000920823319
22	4640	0.046	0.0004654781
22	4641	0.046	1.0132881e-005
22	4642	0.046	0.000983781481
22	4643	0.046	0.000519696754
22	4644	0.046	5.5612027e-005
22	4645	0.046	0.00062331388
22	4646	0.046	0.000875679928
22	4647	0.046	0.000410480752
22	4648	0.046	0.000904898951
22	4649	0.046	0.000458412802
22	4650	0.046	1.1926653e-005
22	4651	0.046	0.000960603913
22	4652	0.046	0.000496280242
22	4653	0.046	3.1956571e-005
22	4654	0.046	0.000586182038
22	4655	0.046	6.682654e-005
22	4656	0.046	0.000439696924
22	4657	0.046	0.00017403976
22	4658	0.046	0.000145271184
22	4739	0.047	0.00061650131
22	4740	0.047	0.00016617608
22	4741	0.047	0.000993027286
22	4742	0.047	0.000775393127
22	4743	0.047	0.000326610536
22	4744	0.047	0.000554787662
22	4745	0.047	9.9442443e-005
22	4746	0.047	0.0005915273
22	4747	0.047	0.000127442573
22	4748	0.047	0.00072476564
22	4749	0.047	0.000945281576
22	4750	0.047	0.0004800824
22	4751	0.047	0.000565440504
22	4752	0.047	0.000118954355
22	4753	0.047	0.0005676329
22	4754	0.047	0.000103309229
22	4755	0.047	0.00070436033
22	4756	0.047	0.000546357648
22	4757	0.047	0.00027549152
22	4758	0.047	1.4883224e-005
22	4759	0.047	0.000263449476
22	4760	0.047	9.968801e-005
22	4835	0.048	0.000877827945
22	4836	0.048	0.000429045354
22	4837	0.048	0.000644097224
22	4838	0.048	0.000188752005
22	4839	0.048	0.000663357846
22	4840	0.048	0.000199273119
22	4841	0.048	0.0008262174
22	4842	0.048	0.000549684048
22	4843	0.048	8.4484872e-005
22	4844	0.048	0.000672468206
22	4845	0.048	0.000225982057
22	4846	0.048	0.000638985558
22	4847	0.048	0.000174661887
22	4848	0.048	0.000822538622
22	4849	0.048	0.00071585085
22	4850	0.048	0.00026552562
22	4851	0.048	0.000653018372
22	4852	0.048	0.00037694328
22	4853	0.048	0.000381627768
22	4854	0.048	0.000206348734
22	4938	0.049	0.000980262763
22	4939	0.049	0.000531480172
22	4940	0.049	0.000733406786
22	4941	0.049	0.000278061567
22	4942	0.049	0.000735188392
22	4943	0.049	0.000271103665
22	4944	0.049	0.00092766916
22	4945	0.049	0.000619285696
22	4946	0.049	0.00015408652
22	4947	0.049	0.000779495908
22	4948	0.049	0.000333009759
22	4949	0.049	0.000710338216
22	4950	0.049	0.000246014545
22	4951	0.049	0.000940716914
22	4952	0.049	0.00081520039
22	4953	0.049	0.00036487516
22	4954	0.049	0.000759679096
22	4955	0.049	8.2697581e-005
22	4956	0.049	0.00047839504
22	4957	0.049	0.00049980606
22	4958	0.049	0.000313009458
22	4959	0.049	2.912092e-005
22	4960	0.049	5.8895206e-005
22	5038	0.05	0.00091454993
22	5039	0.05	0.0004642247
22	5040	0.05	0.00086633982
22	5041	0.05	0.00063391499
22	5042	0.05	0.000185132399
22	5043	0.05	0.000822716348
22	5044	0.05	0.000367371129
22	5045	0.05	0.000807018938
22	5046	0.05	0.000342934211
22	5047	0.05	0.0005798468
22	5048	0.05	0.000688887344
22	5049	0.05	0.000223688168
22	5050	0.05	0.00088652361
22	5051	0.05	0.000440037461
22	5052	0.05	0.000781690874
22	5053	0.05	0.000317367203
22	5054	0.05	0.000617984352
22	5055	0.05	1.389947e-005
22	5056	0.05	0.000419670182
22	5057	0.05	0.00013057268
22	5058	0.05	0.000177073498
22	5140	0.051	0.00056357424
22	5141	0.051	0.00011324901
22	5142	0.051	0.000973000544
22	5143	0.051	0.000736349808
22	5144	0.051	0.000287567217
22	5145	0.051	0.00091202591
22	5146	0.051	0.000456680691
22	5147	0.051	1.335472e-006
22	5148	0.051	0.000878849484
22	5149	0.051	0.000414764757
22	5150	0.051	0.00068129856
22	5151	0.051	0.000758488992
22	5152	0.051	0.000293289816
22	5153	0.051	0.000993551312
22	5154	0.051	0.000547065163
22	5155	0.051	0.000100579014
22	5156	0.051	0.000853043532
22	5157	0.051	0.000388719861
22	5158	0.051	0.000736162644
22	5159	0.051	0.000526330906
22	5160	0.051	0.00023202444
22	5161	0.051	0.00029525179
22	5162	0.051	7.9661268e-005
22	5239	0.052	0.000838784626
22	5240	0.052	0.000390002035
22	5241	0.052	0.000545990253
22	5242	0.052	9.0645034e-005
22	5243	0.052	0.00095068003
22	5244	0.052	0.000486595303
22	5245	0.052	2.2510576e-005
22	5246	0.052	0.00078275032
22	5247	0.052	0.00082809064
22	5248	0.052	0.000362891464
22	5249	0.052	0.000654092865
22	5250	0.052	0.000207606716
22	5251	0.052	0.00092439619
22	5252	0.052	0.000460072519
22	5253	0.052	0.000854340936
22	5254	0.052	0.00066292378
22	5255	0.052	0.00021259855
22	5256	0.052	0.00063299163
22	5257	0.052	0.0003334762
22	5258	0.052	0.000413430082
22	5259	0.052	0.000186321992
22	5342	0.053	0.000941219444
22	5343	0.053	0.000492436853
22	5344	0.053	0.000635299815
22	5345	0.053	0.000179954596
22	5346	0.053	0.000558425849
22	5347	0.053	9.4341122e-005
22	5348	0.053	0.00088420208
22	5349	0.053	0.000897692288
22	5350	0.053	0.000432493112
22	5351	0.053	0.000761120567
22	5352	0.053	0.000314634418
22	5353	0.053	0.000995748848
22	5354	0.053	0.000531425177
22	5355	0.053	6.7101506e-005
22	5356	0.053	0.000972519228
22	5357	0.053	0.00076227332
22	5358	0.053	0.00031194809
22	5359	0.053	0.000739652354
22	5360	0.053	4.3654262e-005
22	5361	0.053	0.00043492796
22	5362	0.053	0.000531608374
22	5363	0.053	0.000292982716
22	5364	0.053	9.069752e-005
22	5445	0.054	0.00086162286
22	5446	0.054	0.00041129763
22	5447	0.054	0.000846313078
22	5448	0.054	0.000594871671
22	5449	0.054	0.00014608908
22	5450	0.054	0.000724609377
22	5451	0.054	0.000269264158
22	5452	0.054	0.000630256395
22	5453	0.054	0.000166171668
22	5454	0.054	0.00098565384
22	5455	0.054	0.000967293936
22	5456	0.054	0.00050209476
22	5457	0.054	0.000868148269
22	5458	0.054	0.00042166212
22	5459	0.054	0.000602777835
22	5460	0.054	0.000138454164
22	5461	0.054	0.000649786666
22	5462	0.054	0.00039964344
22	5463	0.054	0.00053637972
22	5464	0.054	3.6895584e-005
22	5465	0.054	0.000208875812
22	5466	0.054	8.71056e-005
22	5549	0.055	0.000571696408
22	5550	0.055	0.000106497232
22	5551	0.055	0.000975175971
22	5552	0.055	0.000528689822
22	5553	0.055	8.2203673e-005
22	5554	0.055	0.000674130493
22	5555	0.055	0.000209806822
22	5556	0.055	0.000767964958
22	5557	0.055	0.0009609724
22	5558	0.055	0.00051064717
22	5559	0.055	0.000952973802
22	5560	0.055	0.000697306489
22	5561	0.055	0.000248523898
22	5562	0.055	0.000813918939
22	5563	0.055	0.00035857372
22	5564	0.055	0.000702086941
22	5565	0.055	0.000238002214
22	5566	0.055	0.00063783148
22	5567	0.055	0.000327054104
22	5568	0.055	6.032194e-005
22	5569	0.055	0.000506304164
22	5570	0.055	0.00018855736
22	5571	0.055	5.9634526e-005
22	5649	0.056	0.000799741307
22	5650	0.056	0.000350958716
22	5651	0.056	0.000903228501
22	5652	0.056	0.000447883282
22	5653	0.056	0.000773917487
22	5654	0.056	0.00030983276
22	5655	0.056	0.00073928324
22	5656	0.056	0.000641298056
22	5657	0.056	0.00017609888
22	5658	0.056	0.000635717524
22	5659	0.056	0.000189231375
22	5660	0.056	0.000745483151
22	5661	0.056	0.00028115948
22	5662	0.056	0.00088614325
22	5663	0.056	0.00060999671
22	5664	0.056	0.00015967148
22	5665	0.056	0.000612964888
22	5666	0.056	0.00029000912
22	5667	0.056	0.000445232396
22	5668	0.056	0.00016629525
22	5669	0.056	4.321542e-006
22	5749	0.057	0.00070934625
22	5750	0.057	0.00025902102
22	5751	0.057	0.000719625612
22	5752	0.057	0.000902176125
22	5753	0.057	0.000453393534
22	5754	0.057	0.000992538063
22	5755	0.057	0.000537192844
22	5756	0.057	8.1847625e-005
22	5757	0.057	0.000845748033
22	5758	0.057	0.000381663306
22	5759	0.057	0.000840735
22	5760	0.057	0.000710899704
22	5761	0.057	0.000245700528
22	5762	0.057	0.000742745226
22	5763	0.057	0.000296259077
22	5764	0.057	0.000816835809
22	5765	0.057	0.000352512138
22	5766	0.057	0.000563410688
22	5767	0.057	0.000272955974
22	5768	0.057	4.610943e-006
22	5769	0.057	0.00039146088
22	5770	0.057	0.000122499834
22	5848	0.058	0.00080869579
22	5849	0.058	0.00035837056
22	5850	0.058	0.000826286336
22	5851	0.058	0.000555828352
22	5852	0.058	0.000107045761
22	5853	0.058	0.000626502406
22	5854	0.058	0.000171157187
22	5855	0.058	0.000917578579
22	5856	0.058	0.000453493852
22	5857	0.058	0.00094218676
22	5858	0.058	0.000780501352
22	5859	0.058	0.000315302176
22	5860	0.058	0.000849772928
22	5861	0.058	0.000403286779
22	5862	0.058	0.000888188467
22	5863	0.058	0.000423864796
22	5864	0.058	0.00068158898
22	5865	0.058	0.000379616698
22	5866	0.058	0.00049291264
22	5867	0.058	0.000240678126
22	5868	0.058	4.363852e-005
22	5955	0.059	0.000850103
22	5956	0.059	0.000384903824
22	5957	0.059	0.00095680063
22	5958	0.059	0.000510314481
22	5959	0.059	6.3828332e-005
22	5960	0.059	0.000959541125
22	5961	0.059	0.000495217454
22	5962	0.059	3.0893783e-005
22	5963	0.059	0.000799767272
22	5964	0.059	0.00090804533
22	5965	0.059	0.0004577201
22	5966	0.059	0.00093294706
22	5967	0.059	0.00065826317
22	5968	0.059	0.000209480579
22	5969	0.059	0.000715811968
22	5970	0.059	0.000260466749
22	5971	0.059	0.000989409125
22	5972	0.059	0.000525324398
22	5973	0.059	6.1239671e-005
22	5974	0.059	0.0005943644
22	5975	0.059	0.000358856418
22	5976	0.059	7.39487e-006
22	5977	0.059	0.000486277422
22	5978	0.059	0.00014509028
22	5979	0.059	3.9607784e-005
22	6057	0.06	0.000760697988
22	6058	0.06	0.000311915397
22	6059	0.06	0.00080512153
22	6060	0.06	0.000349776311
22	6061	0.06	0.000597154944
22	6062	0.06	0.000133070217
22	6063	0.06	0.00069581616
22	6064	0.06	0.000919704648
22	6065	0.06	0.000454505472
22	6066	0.06	0.000617342183
22	6067	0.06	0.000170856034
[...]
22	6774	0.067	0.000635884039
22	6775	0.067	0.000171799312
22	6776	0.067	0.00095670436
22	6777	0.067	0.000941717008
22	6778	0.067	0.000476517832
22	6779	0.067	0.000920049948
22	6780	0.067	0.000473563799
22	6781	0.067	2.707765e-005
22	6782	0.067	0.000601715047
22	6783	0.067	0.000137391376
22	6784	0.067	0.0008633719
22	6785	0.067	0.000446223938
22	6786	0.067	0.00050743024
22	6787	0.067	1.1318656e-005
22	6788	0.067	0.000422461046
22	6789	0.067	5.815612e-005
22	6873	0.068	0.00054611948
22	6874	0.068	8.0920304e-005
22	6875	0.068	0.000580591501
22	6876	0.068	0.000134105352
22	6877	0.068	0.000673067705
22	6878	0.068	0.000208744034
22	6879	0.068	0.000981550192
22	6880	0.068	0.00090154073
22	6881	0.068	0.0004512155
22	6882	0.068	0.0009995543
22	6883	0.068	0.00068261135
22	6884	0.068	0.000233828759
22	6885	0.068	0.000608907588
22	6886	0.068	0.000153562369
22	6887	0.068	0.000707714585
22	6888	0.068	0.000243629858
22	6889	0.068	0.000608882
22	6890	0.068	0.000540639338
22	6891	0.068	8.9027e-007
22	6892	0.068	0.000552884662
22	6893	0.068	0.00015960788
22	6894	0.068	9.9728484e-005
22	6895	0.068	0.000106215024
22	6970	0.069	0.000785046168
22	6971	0.069	0.000336263577
22	6972	0.069	0.00069821715
22	6973	0.069	0.000242871931
22	6974	0.069	0.000779545131
22	6975	0.069	0.000315460404
22	6976	0.069	0.00071033376
22	6977	0.069	0.000615721128
22	6978	0.069	0.000150521952
22	6979	0.069	0.000687619203
22	6980	0.069	0.000241133054
22	6981	0.069	0.000744420363
22	6982	0.069	0.000280096692
22	6983	0.069	0.00065881763
22	6984	0.069	0.00055056504
22	6985	0.069	0.00010023981
22	6986	0.069	0.000659545386
22	6987	0.069	0.00026105964
22	6988	0.069	0.000217906776
22	6989	0.069	0.000212875748
22	7064	0.07	0.000887480986
22	7065	0.07	0.000438698395
22	7066	0.07	0.000787526712
22	7067	0.07	0.000332181493
22	7068	0.07	0.000851375677
22	7069	0.07	0.00038729095
22	7070	0.07	0.00081178552
22	7071	0.07	0.000685322776
22	7072	0.07	0.0002201236
22	7073	0.07	0.000794646905
22	7074	0.07	0.000348160756
22	7075	0.07	0.000815773021
22	7076	0.07	0.00035144935
22	7077	0.07	0.000776995922
22	7078	0.07	0.00064991458
22	7079	0.07	0.00019958935
22	7080	0.07	0.00076620611
22	7081	0.07	0.0003625114
22	7082	0.07	0.000336085068
22	7083	0.07	0.000319536472
22	7169	0.071	0.000989915804
22	7170	0.071	0.000541133213
22	7171	0.071	0.000876836274
22	7172	0.071	0.000421491055
22	7173	0.071	0.000923206223
22	7174	0.071	0.000459121496
22	7175	0.071	0.00091323728
22	7176	0.071	0.000754924424
22	7177	0.071	0.000289725248
22	7178	0.071	0.000901674607
22	7179	0.071	0.000455188458
22	7180	0.071	8.702309e-006
22	7181	0.071	0.000887125679
22	7182	0.071	0.000422802008
22	7183	0.071	0.000895174214
22	7184	0.071	0.00074926412
22	7185	0.071	0.00029893889
22	7186	0.071	0.000872866834
22	7187	0.071	9.2350622e-005
22	7188	0.071	0.00046396316
22	7189	0.071	0.00045426336
22	7190	0.071	0.000426197196
22	7191	0.071	1.468904e-005
22	7192	0.071	1.3352506e-005
22	7276	0.072	0.00084861366
22	7277	0.072	0.00039828843
22	7278	0.072	0.000979527558
22	7279	0.072	0.000643568031
22	7280	0.072	0.00019478544
22	7281	0.072	0.000966145836
22	7282	0.072	0.000510800617
22	7283	0.072	5.5455398e-005
22	7284	0.072	0.000995036769
22	7285	0.072	0.000530952042
22	7286	0.072	6.6867315e-005
22	7287	0.072	0.00056541492
22	7288	0.072	0.000824526072
22	7289	0.072	0.000359326896
22	7290	0.072	0.00056221616
22	7291	0.072	0.000115730011
22	7292	0.072	0.000958478337
22	7293	0.072	0.000494154666
22	7294	0.072	2.9830995e-005
22	7295	0.072	0.000572441652
22	7296	0.072	0.00053285792
22	7297	0.072	0.0001161408
22	7298	0.072	0.000131530798
22	7299	0.072	8.6188282e-005
22	7377	0.073	0.000746002849
22	7378	0.073	0.000297220258
22	7379	0.073	0.000600110179
22	7380	0.073	0.00014476496
22	7381	0.073	0.000602782588
22	7382	0.073	0.000138697861
22	7383	0.073	0.00066686668
22	7384	0.073	0.00089412772
22	7385	0.073	0.000428928544
22	7386	0.073	0.000669243862
22	7387	0.073	0.000222757713
22	7388	0.073	0.000565507324
22	7389	0.073	0.000101183653
22	7390	0.073	0.000690619944
22	7391	0.073	0.0009479632
22	7392	0.073	0.00049763797
22	7393	0.073	0.000639518644
22	7394	0.073	0.00021759256
22	7395	0.073	0.00024970909
22	7396	0.073	4.731274e-005
22	7397	0.073	0.000192849006
22	7475	0.074	0.000848437667
22	7476	0.074	0.000399655076
22	7477	0.074	0.000689419741
22	7478	0.074	0.000234074522
22	7479	0.074	0.000674613134
22	7480	0.074	0.000210528407
22	7481	0.074	0.00076831844
22	7482	0.074	0.000963729368
22	7483	0.074	0.000498530192
22	7484	0.074	0.000776271564
22	7485	0.074	0.000329785415
22	7486	0.074	0.000636859982
22	7487	0.074	0.000172536311
22	7488	0.074	0.000808798236
22	7489	0.074	0.00059698751
22	7490	0.074	0.00014666228
22	7491	0.074	0.000746179368
22	7492	0.074	0.00031904432
22	7493	0.074	3.3331016e-005
22	7494	0.074	0.000367887382
22	7495	0.074	0.00029950973
22	7576	0.075	0.000950872485
22	7577	0.075	0.000502089894
22	7578	0.075	0.000778729303
22	7579	0.075	0.000323384084
22	7580	0.075	0.00074644368
22	7581	0.075	0.000282358953
22	7582	0.075	0.0008697702
22	7583	0.075	0.00056813184
22	7584	0.075	0.000102932664
22	7585	0.075	0.000883299266
22	7586	0.075	0.000436813117
22	7587	0.075	0.00070821264
22	7588	0.075	0.000243888969
22	7589	0.075	0.000926976528
22	7590	0.075	0.00069633705
22	7591	0.075	0.00024601182
22	7592	0.075	0.000852840092
22	7593	0.075	5.3307303e-005
22	7594	0.075	0.00042049608
22	7595	0.075	0.000486065674
22	7596	0.075	0.000406170454
22	7597	0.075	4.515482e-005
22	7680	0.076	0.00079568659
22	7681	0.076	0.00034536136
22	7682	0.076	0.000959500816
22	7683	0.076	0.000604524712
22	7684	0.076	0.000155742121
22	7685	0.076	0.000868038865
22	7686	0.076	0.000412693646
22	7687	0.076	0.000818274226
22	7688	0.076	0.000354189499
22	7689	0.076	0.00097122196
22	7690	0.076	0.000637733488
22	7691	0.076	0.000172534312
22	7692	0.076	0.000990326968
22	7693	0.076	0.000543840819
22	7694	0.076	9.735467e-005
22	7695	0.076	0.000779565298
22	7696	0.076	0.000315241627
22	7697	0.076	0.000604243966
22	7698	0.076	0.000512831178
22	7699	0.076	0.00052194784
22	7700	0.076	0.000163333112
22	7701	0.076	6.616154e-005
22	7702	0.076	7.267372e-005
22	7779	0.077	0.000707335136
22	7780	0.077	0.00024213596
22	7781	0.077	0.000650868521
22	7782	0.077	0.000204382372
22	7783	0.077	0.000850917956
22	7784	0.077	0.000386594285
22	7785	0.077	0.000722422258
22	7786	0.077	0.00089503613
22	7787	0.077	0.0004447109
22	7788	0.077	0.000619491902
22	7789	0.077	0.00070695953
22	7790	0.077	0.000258176939
22	7791	0.077	0.000957348427
22	7792	0.077	0.000502003208
22	7793	0.077	4.6657989e-005
22	7794	0.077	0.000890104772
22	7795	0.077	0.000426020045
22	7796	0.077	0.0006233996
22	7797	0.077	0.000281511404
22	7798	0.077	0.000172822264
22	7799	0.077	0.00017412548
22	7879	0.078	0.000776936784
22	7880	0.078	0.000311737608
22	7881	0.078	0.000757896223
22	7882	0.078	0.000311410074
22	7883	0.078	0.000922270614
22	7884	0.078	0.000457946943
22	7885	0.078	0.00084060055
22	7886	0.078	0.00099438567
22	7887	0.078	0.00054406044
22	7888	0.078	0.000726152626
22	7889	0.078	0.000809394348
22	7890	0.078	0.000360611757
22	7891	0.078	0.00059131277
22	7892	0.078	0.000135967551
22	7893	0.078	0.000961935318
22	7894	0.078	0.000497850591
22	7895	0.078	3.3765864e-005
22	7896	0.078	0.00072485136
22	7897	0.078	0.000399689696
22	7898	0.078	9.373521e-005
22	7899	0.078	0.000279482988
22	7900	0.078	0.00027557724
22	7983	0.079	0.000846538432
22	7984	0.079	0.000381339256
22	7985	0.079	0.000864923925
22	7986	0.079	0.000418437776
22	7987	0.079	0.000993623272
22	7988	0.079	0.000529299601
22	7989	0.079	6.497593e-005
22	7990	0.079	0.000958778842
22	7991	0.079	0.00064340998
22	7992	0.079	0.00019308475
22	7993	0.079	0.00083281335
22	7994	0.079	0.000911829166
22	7995	0.079	0.000463046575
22	7996	0.079	0.000680622332
22	7997	0.079	0.000225277113
22	7998	0.079	0.000569681137
22	7999	0.079	0.00010559641
22	8000	0.079	0.00082630312
22	8001	0.079	0.000517867988
22	8002	0.079	0.000386143712
22	8003	0.079	1.4263984e-005
22	8004	0.079	0.000377029
22	8005	0.079	7.6957134e-005
22	8088	0.08	0.00074275952
22	8089	0.08	0.00029243429
22	8090	0.08	0.000939474074
22	8091	0.08	0.000565481393
22	8092	0.08	0.000116698802
22	8093	0.08	0.000769931894
22	8094	0.08	0.000314586675
22	8095	0.08	0.000641511683
22	8096	0.08	0.000177426956
22	8097	0.08	0.00092775488
22	8098	0.08	0.00091614008
22	8099	0.08	0.000450940904
22	8100	0.08	0.000971951627
22	8101	0.08	0.000525465478
22	8102	0.08	7.8979329e-005
22	8103	0.08	0.000600652259
22	8104	0.08	0.000136328588
22	8105	0.08	0.00063604628
22	8106	0.08	0.000492804436
22	8107	0.08	0.00047848076
22	8108	0.08	0.000195135426
22	8109	0.08	4.6134798e-005
22	8110	0.08	2.920664e-005
22	8188	0.081	0.000985741728
22	8189	0.081	0.000520542552
22	8190	0.081	0.00063249318
22	8191	0.081	0.000186007031
22	8192	0.081	0.000672004917
22	8193	0.081	0.000207681246
22	8194	0.081	0.000754224572
22	8195	0.081	0.00084210906
22	8196	0.081	0.00039178383
22	8197	0.081	0.00059946516
22	8198	0.081	0.000667916211
22	8199	0.081	0.00021913362
22	8200	0.081	0.000859241456
22	8201	0.081	0.000403896237
22	8202	0.081	0.000713342229
22	8203	0.081	0.000249257502
22	8204	0.081	0.00057993252
22	8205	0.081	5.5343376e-005
22	8206	0.081	0.000313313718
22	8207	0.081	0.000152795522
22	8208	0.081	0.0001306584
22	8288	0.082	0.0005901442
22	8289	0.082	0.000124945024
22	8290	0.082	0.000739520882
22	8291	0.082	0.000293034733
22	8292	0.082	0.000743357575
22	8293	0.082	0.000279033904
22	8294	0.082	0.000872402864
22	8295	0.082	0.0009414586
22	8296	0.082	0.00049113337
22	8297	0.082	0.000706125884
22	8298	0.082	0.000770351029
22	8299	0.082	0.000321568438
22	8300	0.082	0.000948551018
22	8301	0.082	0.000493205799
22	8302	0.082	3.786058e-005
22	8303	0.082	0.000785172775
22	8304	0.082	0.000321088048
22	8305	0.082	0.00068138428
22	8306	0.082	0.00043149201
22	8307	0.082	4.080814e-005
22	8308	0.082	0.000259456246
22	8309	0.082	0.00023211016
22	8387	0.083	0.000659745848
22	8388	0.083	0.000194546672
22	8389	0.083	0.000846548584
22	8390	0.083	0.000400062435
22	8391	0.083	0.000814710233
22	8392	0.083	0.000350386562
22	8393	0.083	0.000990581156
22	8394	0.083	0.00059048291
22	8395	0.083	0.00014015768
22	8396	0.083	0.000812786608
22	8397	0.083	0.000872785847
22	8398	0.083	0.000424003256
22	8399	0.083	0.000582515361
22	8400	0.083	0.000127170142
22	8401	0.083	0.000857003321
22	8402	0.083	0.000392918594
22	8403	0.083	0.00078283604
22	8404	0.083	0.000549670302
22	8405	0.083	0.00036611697
22	8406	0.083	0.00033356192
22	8407	0.083	0.000108759448
22	8492	0.084	0.00068983245
22	8493	0.084	0.00023950722
22	8494	0.084	0.000919447332
22	8495	0.084	0.000975220665
22	8496	0.084	0.000526438074
22	8497	0.084	0.000671824923
22	8498	0.084	0.000216479704
22	8499	0.084	0.000928833867
22	8500	0.084	0.00046474914
22	8501	0.084	6.64413e-007
22	8502	0.084	0.0008842878
22	8503	0.084	0.000729347496
22	8504	0.084	0.00026414832
22	8505	0.084	0.000953576286
22	8506	0.084	0.000507090137
22	8507	0.084	6.0603988e-005
22	8508	0.084	0.000886062891
22	8509	0.084	0.00042173922
22	8510	0.084	0.000667848594
22	8511	0.084	0.000472777694
22	8512	0.084	7.7655483e-005
22	8513	0.084	0.00043501368
22	8514	0.084	0.00022693774
22	8515	0.084	2.6108056e-005
22	8595	0.085	0.000628872892
22	8596	0.085	0.000180090301
22	8597	0.085	0.000761134485
22	8598	0.085	0.000305789266
22	8599	0.085	0.000536579686
22	8600	0.085	7.2494959e-005
22	8601	0.085	0.00098573956
22	8602	0.085	0.000798949144
22	8603	0.085	0.000333749968
22	8604	0.085	0.000614117839
22	8605	0.085	0.00016763169
22	8606	0.085	0.000957415549
22	8607	0.085	0.000493091878
22	8608	0.085	2.8768207e-005
22	8609	0.085	0.000786026886
22	8610	0.085	0.00078918199
22	8611	0.085	0.00033885676
22	8612	0.085	0.000579438418
22	8613	0.085	0.00053646544
22	8614	0.085	0.000345116032
22	8615	0.085	0.00013276878
22	8616	0.085	8.719132e-005
22	8694	0.086	0.000868550792
22	8695	0.086	0.000403351616
22	8696	0.086	0.000721145541
22	8697	0.086	0.000274659392
22	8698	0.086	0.000564444536
22	8699	0.086	0.000100120865
22	8700	0.086	0.000904205178
22	8701	0.086	0.00088853153
22	8702	0.086	0.0004382063
22	8703	0.086	0.000686099142
22	8704	0.086	0.00073130771
22	8705	0.086	0.000282525119
22	8706	0.086	0.000850444047
22	8707	0.086	0.000395098828
22	8708	0.086	0.000608410232
22	8709	0.086	0.000144325505
22	8710	0.086	0.0006379172
22	8711	0.086	0.000463294324
22	8712	0.086	0.000239429504
22	8713	0.086	0.00018864308
22	8714	0.086	2.238347e-005
22	8797	0.087	0.00098788107
22	8798	0.087	0.00053755584
22	8799	0.087	0.000792759866
22	8800	0.087	0.000833742528
22	8801	0.087	0.000384959937
22	8802	0.087	0.000939753609
22	8803	0.087	0.00048440839
22	8804	0.087	2.9063171e-005
22	8805	0.087	0.000680240778
22	8806	0.087	0.000216156051
22	8807	0.087	0.00073936896
22	8808	0.087	0.00093815244
22	8809	0.087	0.000472953264
22	8810	0.087	0.000828173243
22	8811	0.087	0.000381687094
22	8812	0.087	0.000635797194
22	8813	0.087	0.000171473523
22	8814	0.087	0.000581472616
22	8815	0.087	8.723061e-005
22	8816	0.087	0.000346090228
22	8817	0.087	0.00029009484
22	8818	0.087	7.754088e-006
22	8819	0.087	0.000140561762
22	8902	0.088	0.00063690538
22	8903	0.088	0.00018658015
22	8904	0.088	0.00089942059
22	8905	0.088	0.000936177346
22	8906	0.088	0.000487394755
22	8907	0.088	0.000573717952
22	8908	0.088	0.000118372733
22	8909	0.088	0.000752071324
22	8910	0.088	0.000287986597
22	8911	0.088	0.00084082072
22	8912	0.088	0.000542554912
22	8913	0.088	7.7355736e-005
22	8914	0.088	0.000935200945
22	8915	0.088	0.000488714796
22	8916	0.088	4.2228647e-005
22	8917	0.088	0.000707149852
22	8918	0.088	0.000242826181
22	8919	0.088	0.000699650908
22	8920	0.088	0.000452750952
22	8921	0.088	3.8612164e-005
22	8922	0.088	0.0003915466
22	8923	0.088	0.000258740054
22	8924	0.088	6.081314e-006
22	9002	0.089	0.000589829573
22	9003	0.089	0.000141046982
22	9004	0.089	0.000663027514
22	9005	0.089	0.000207682295
22	9006	0.089	0.00082390187
22	9007	0.089	0.000359817143
22	9008	0.089	0.00094227248
22	9009	0.089	0.00061215656
22	9010	0.089	0.000146957384
22	9011	0.089	0.000595742498
22	9012	0.089	0.000149256349
22	9013	0.089	0.00077850251
22	9014	0.089	0.000314178839
22	9015	0.089	0.0008178292
22	9016	0.089	0.00073625492
22	9017	0.089	0.00028592969
22	9018	0.089	0.000559411676
22	9019	0.089	0.00049299836
22	9020	0.089	0.000376918346
22	9021	0.089	0.000112742038
22	9022	0.089	4.372424e-005
22	9100	0.09	0.000681758208
22	9101	0.09	0.000216559032
22	9102	0.09	0.0007027702
22	9103	0.09	0.000256284051
22	9104	0.09	0.000849855168
22	9105	0.09	0.000385531497
22	9106	0.09	0.000936007492
22	9107	0.09	0.00083560446
22	9108	0.09	0.00038527923
22	9109	0.09	0.0006660724
22	9110	0.09	0.000692264391
22	9111	0.09	0.0002434818
22	9112	0.09	0.000752337076
22	9113	0.09	0.000296991857
22	9114	0.09	0.000895732416
22	9115	0.09	0.000431647689
22	9116	0.09	0.00059445012
22	9117	0.09	0.000495096638
22	9118	0.09	0.000219402762
22	9119	0.09	0.000145176
22	9120	0.09	5.4185784e-005
22	9200	0.091	0.000934954
22	9201	0.091	0.00048462877
22	9202	0.091	0.000772733124
22	9203	0.091	0.000794699209
22	9204	0.091	0.000345916618
22	9205	0.091	0.000841646638
22	9206	0.091	0.000386301419
22	9207	0.091	0.000967562962
22	9208	0.091	0.000503478235
22	9209	0.091	3.9393508e-005
22	9210	0.091	0.00069590188
22	9211	0.091	0.000751359856
22	9212	0.091	0.00028616068
22	9213	0.091	0.000809797902
22	9214	0.091	0.000363311753
22	9215	0.091	0.000921207826
22	9216	0.091	0.000456884155
22	9217	0.091	0.00061327493
22	9218	0.091	3.430354e-005
22	9219	0.091	0.000326063486
22	9220	0.091	0.00024662776
22	9221	0.091	0.000172364076
22	9302	0.092	0.00058397831
22	9303	0.092	0.00013365308
22	9304	0.092	0.000879393848
22	9305	0.092	0.000897134027
22	9306	0.092	0.000448351436
22	9307	0.092	0.0009309562
22	9308	0.092	0.000475610981
22	9309	0.092	2.0265762e-005
22	9310	0.092	0.000575308781
22	9311	0.092	0.000111224054
22	9312	0.092	0.00079735364
22	9313	0.092	0.000820961504
22	9314	0.092	0.000355762328
22	9315	0.092	0.000916825604
22	9316	0.092	0.000470339455
22	9317	0.092	2.3853306e-005
22	9318	0.092	0.000992560484
22	9319	0.092	0.000528236813
22	9320	0.092	6.3913142e-005
22	9321	0.092	0.000731453222
22	9322	0.092	0.00043272421
22	9323	0.092	0.00034807952
22	9324	0.092	0.000290542368
22	9408	0.093	0.00068332785
22	9409	0.093	0.00023300262
22	9410	0.093	0.000986054572
22	9411	0.093	0.000999568845
22	9412	0.093	0.000550786254
22	9413	0.093	0.000564920543
22	9414	0.093	0.000109575324
22	9415	0.093	0.000647139327
22	9416	0.093	0.0001830546
22	9417	0.093	0.0008988054
22	9418	0.093	0.000890563152
22	9419	0.093	0.000425363976
22	9420	0.093	0.000577367157
22	9421	0.093	0.000130881008
22	9422	0.093	0.000599589471
22	9423	0.093	0.0001352658
22	9424	0.093	0.000849631514
22	9425	0.093	0.000539384934
22	9426	0.093	0.000102003663
22	9427	0.093	0.00044953128
22	9428	0.093	0.00040872066
22	9429	0.093	9.2715296e-005
22	9430	0.093	2.5716e-007
22	9511	0.094	0.0009601648
22	9512	0.094	0.000494965624
22	9513	0.094	0.000684394859
22	9514	0.094	0.00023790871
22	9515	0.094	0.000670942129
22	9516	0.094	0.000206618458
22	9517	0.094	0.000967809806
22	9518	0.094	0.00078267739
22	9519	0.094	0.00033235216
22	9520	0.094	0.000646045658
22	9521	0.094	0.000653221072
22	9522	0.094	0.000204438481
22	9523	0.094	0.000654230105
22	9524	0.094	0.000198884886
22	9525	0.094	0.000718969873
22	9526	0.094	0.000254885146
22	9527	0.094	0.00055098304
22	9528	0.094	2.9766448e-005
22	9529	0.094	0.000526898952
22	9530	0.094	0.00019937602
22	9531	0.094	0.00010170892
22	9532	0.094	8.5988098e-005
22	9607	0.095	0.00088202693
22	9608	0.095	0.0004317017
22	9609	0.095	0.000752706382
22	9610	0.095	0.00075565589
22	9611	0.095	0.000306873299
22	9612	0.095	0.000743539667
22	9613	0.095	0.000288194448
22	9614	0.095	0.000790800419
22	9615	0.095	0.000326715692
22	9616	0.095	0.0006524348
22	9617	0.095	0.000564567272
22	9618	0.095	9.9368096e-005
22	9619	0.095	0.000791422561
22	9620	0.095	0.000344936412
22	9621	0.095	0.000742294787
22	9622	0.095	0.000277971116
22	9623	0.095	0.000645077244
22	9624	0.095	0.000306036744
22	9625	0.095	0.00020316068
22	9626	0.095	0.00020416639
22	9706	0.096	0.00098137647
22	9707	0.096	0.00053105124
22	9708	0.096	0.000859367106
22	9709	0.096	0.000858090708
22	9710	0.096	0.000409308117
22	9711	0.096	0.000832849229
22	9712	0.096	0.00037750401
22	9713	0.096	0.000862630965
22	9714	0.096	0.000398546238
22	9715	0.096	0.00075388656
22	9716	0.096	0.00063416892
22	9717	0.096	0.000168969744
22	9718	0.096	0.000898450263
22	9719	0.096	0.000451964114
22	9720	0.096	5.477965e-006
22	9721	0.096	0.000813647445
22	9722	0.096	0.000349323774
22	9723	0.096	0.000763255536
22	9724	0.096	8.072601e-005
22	9725	0.096	0.000412697468
22	9726	0.096	0.00030461244
22	9727	0.096	0.000322344682
22	9812	0.097	0.00063040078
22	9813	0.097	0.00018007555
22	9814	0.097	0.00096602783
22	9815	0.097	0.000960525526
22	9816	0.097	0.000511742935
22	9817	0.097	0.000922158791
22	9818	0.097	0.000466813572
22	9819	0.097	1.1468353e-005
22	9820	0.097	0.000934461511
22	9821	0.097	0.000470376784
22	9822	0.097	6.292057e-006
22	9823	0.097	0.00085533832
22	9824	0.097	0.000703770568
22	9825	0.097	0.000238571392
22	9826	0.097	0.000558991816
22	9827	0.097	0.000112505667
22	9828	0.097	0.000885000103
22	9829	0.097	0.000420676432
22	9830	0.097	0.000881433828
22	9831	0.097	0.000519358192
22	9832	0.097	6.2960344e-005
22	9833	0.097	0.0004060642
22	9834	0.097	0.000440522974
22	9835	0.097	7.2688554e-005
22	9918	0.098	0.000614177753
22	9919	0.098	0.000165395162
22	9920	0.098	0.000556123134
22	9921	0.098	0.000100777915
22	9922	0.098	0.00054220733
22	9923	0.098	7.8122603e-005
22	9924	0.098	0.00095679008
22	9925	0.098	0.000773372216
22	9926	0.098	0.00030817304
22	9927	0.098	0.000666019518
22	9928	0.098	0.000219533369
22	9929	0.098	0.000956352761
22	9930	0.098	0.00049202909
22	9931	0.098	2.7705419e-005
22	9932	0.098	0.00099961212
22	9933	0.098	0.00072975032
22	9934	0.098	0.00027942509
22	9935	0.098	0.000626018916
22	9936	0.098	0.00050751596
22	9937	0.098	0.000558701266
22	9938	0.098	0.000179349278
22	9939	0.098	5.824184e-005
22	9940	0.098	0.000117790412

