version 2
run _10UsersSetupPF-0-20201129-19:25:44-6336
attr configname _10UsersSetupPF
attr datetime 20201129-19:25:44
attr experiment _10UsersSetupPF
attr inifile omnetpp.ini
attr iterationvars ""
attr iterationvarsf ""
attr measurement ""
attr network Network
attr processid 6336
attr repetition 0
attr replication #0
attr resultdir results
attr runnumber 0
attr seedset 0
param **.algorithm "\"pf\""
param **.usersCount 10
param **.channelsCount 30
param **.networkLoad 1.5
param **.scheduler.generateInterval 1ms
param **.gen.generateInterval "triang(0.9ms, 1.0ms, 1.1ms)"
param **.user[0].radioLinkQuality 1
param **.user[1].radioLinkQuality 2
param **.user[2].radioLinkQuality 3
param **.user[3].radioLinkQuality 4
param **.user[4].radioLinkQuality 5
param **.user[5].radioLinkQuality 6
param **.user[6].radioLinkQuality 7
param **.user[7].radioLinkQuality 8
param **.user[8].radioLinkQuality 9
param **.user[9].radioLinkQuality 10
param **.user[0].gen.startingMessage 0
param **.user[1].gen.startingMessage 100
param **.user[2].gen.startingMessage 200
param **.user[3].gen.startingMessage 300
param **.user[4].gen.startingMessage 400
param **.user[5].gen.startingMessage 500
param **.user[6].gen.startingMessage 600
param **.user[7].gen.startingMessage 700
param **.user[8].gen.startingMessage 800
param **.user[9].gen.startingMessage 900

vector 0 Network.user[0].queue "Queue before scheduler's run." ETV
vector 1 Network.user[1].queue "Queue before scheduler's run." ETV
vector 2 Network.user[2].queue "Queue before scheduler's run." ETV
vector 3 Network.user[3].queue "Queue before scheduler's run." ETV
vector 4 Network.user[4].queue "Queue before scheduler's run." ETV
vector 5 Network.user[5].queue "Queue before scheduler's run." ETV
vector 6 Network.user[6].queue "Queue before scheduler's run." ETV
vector 7 Network.user[7].queue "Queue before scheduler's run." ETV
vector 8 Network.user[8].queue "Queue before scheduler's run." ETV
vector 9 Network.user[9].queue "Queue before scheduler's run." ETV
vector 10 Network.scheduler "Scheduler free channels" ETV
vector 11 Network.scheduler "Total users' queues lengths" ETV
vector 12 Network.user[9].queue "Queue after scheduler's run." ETV
vector 13 Network.user[8].queue "Queue after scheduler's run." ETV
vector 14 Network.user[7].queue "Queue after scheduler's run." ETV
vector 15 Network.user[6].queue "Queue after scheduler's run." ETV
vector 16 Network.user[5].queue "Queue after scheduler's run." ETV
vector 17 Network.user[4].queue "Queue after scheduler's run." ETV
vector 18 Network.user[3].queue "Queue after scheduler's run." ETV
vector 19 Network.user[2].queue "Queue after scheduler's run." ETV
vector 20 Network.sink lifetime:vector ETV
attr interpolationmode none
attr title "lifetime of arrived jobs, vector"
attr unit s
vector 21 Network.user[1].queue "Queue after scheduler's run." ETV
vector 22 Network.user[0].queue "Queue after scheduler's run." ETV
0	82	0.001	4
0	223	0.002	8
0	374	0.003	13
0	520	0.004	17
0	667	0.005	22
0	808	0.006	26
0	960	0.007	31
0	1099	0.008	35
0	1241	0.009	40
0	1384	0.01	44
0	1528	0.011	49
0	1668	0.012	53
0	1810	0.013	58
0	1956	0.014	62
0	2096	0.015	67
0	2238	0.016	63
0	2384	0.017	68
0	2524	0.018	72
0	2665	0.019	77
0	2807	0.02	81
0	2953	0.021	86
0	3089	0.022	90
0	3237	0.023	94
0	3375	0.024	99
0	3517	0.025	103
0	3659	0.026	108
0	3803	0.027	112
0	3945	0.028	117
0	4085	0.029	121
0	4231	0.03	120
0	4373	0.031	124
0	4514	0.032	129
0	4653	0.033	133
0	4800	0.034	138
0	4933	0.035	142
0	5083	0.036	147
0	5220	0.037	151
0	5363	0.038	156
0	5503	0.039	160
0	5648	0.04	165
0	5787	0.041	169
0	5931	0.042	174
0	6070	0.043	178
0	6216	0.044	183
0	6353	0.045	187
0	6496	0.046	191
0	6639	0.047	196
0	6776	0.048	200
0	6924	0.049	205
0	7059	0.05	209
0	7206	0.051	214
0	7341	0.052	218
0	7486	0.053	223
0	7625	0.054	227
0	7770	0.055	215
0	7909	0.056	219
0	8054	0.057	224
0	8191	0.058	228
0	8336	0.059	233
0	8475	0.06	237
0	8614	0.061	242
0	8761	0.062	246
0	8897	0.063	251
0	9040	0.064	255
0	9181	0.065	260
0	9322	0.066	264
0	9463	0.067	268
0	9606	0.068	273
0	9747	0.069	277
0	9884	0.07	282
1	83	0.001	4
1	224	0.002	8
1	375	0.003	12
1	521	0.004	16
1	668	0.005	21
1	809	0.006	25
1	961	0.007	30
1	1100	0.008	34
1	1242	0.009	27
1	1385	0.01	31
1	1529	0.011	36
1	1669	0.012	40
1	1811	0.013	44
1	1957	0.014	49
1	2097	0.015	53
1	2239	0.016	58
1	2385	0.017	53
1	2525	0.018	58
1	2666	0.019	62
1	2808	0.02	67
1	2954	0.021	71
1	3090	0.022	76
1	3238	0.023	80
1	3376	0.024	84
1	3518	0.025	89
1	3660	0.026	89
1	3804	0.027	94
1	3946	0.028	98
1	4086	0.029	103
1	4232	0.03	107
1	4374	0.031	112
1	4515	0.032	116
1	4654	0.033	121
1	4801	0.034	125
1	4934	0.035	129
1	5084	0.036	134
1	5221	0.037	125
1	5364	0.038	130
1	5504	0.039	134
1	5649	0.04	139
1	5788	0.041	143
1	5932	0.042	148
1	6071	0.043	152
1	6217	0.044	157
1	6354	0.045	161
1	6497	0.046	165
1	6640	0.047	170
1	6777	0.048	172
1	6925	0.049	177
1	7060	0.05	181
1	7207	0.051	186
1	7342	0.052	190
1	7487	0.053	195
1	7626	0.054	199
1	7771	0.055	204
1	7910	0.056	208
1	8055	0.057	213
1	8192	0.058	217
1	8337	0.059	221
1	8476	0.06	226
1	8615	0.061	230
1	8762	0.062	207
1	8898	0.063	211
1	9041	0.064	216
1	9182	0.065	220
1	9323	0.066	225
1	9464	0.067	229
1	9607	0.068	234
1	9748	0.069	238
1	9885	0.07	242
2	84	0.001	4
2	225	0.002	6
2	376	0.003	11
2	522	0.004	9
2	669	0.005	13
2	810	0.006	18
2	962	0.007	13
2	1101	0.008	18
2	1243	0.009	22
2	1386	0.01	26
2	1530	0.011	31
2	1670	0.012	20
2	1812	0.013	25
2	1958	0.014	29
2	2098	0.015	33
2	2240	0.016	38
2	2386	0.017	42
2	2526	0.018	47
2	2667	0.019	30
2	2809	0.02	34
2	2955	0.021	39
2	3091	0.022	43
2	3239	0.023	48
2	3377	0.024	52
2	3519	0.025	53
2	3661	0.026	58
2	3805	0.027	62
2	3947	0.028	66
2	4087	0.029	71
2	4233	0.03	60
2	4375	0.031	65
2	4516	0.032	69
2	4655	0.033	73
2	4802	0.034	78
2	4935	0.035	82
2	5085	0.036	87
2	5222	0.037	91
2	5365	0.038	71
2	5505	0.039	76
2	5650	0.04	80
2	5789	0.041	85
2	5933	0.042	89
2	6072	0.043	86
2	6218	0.044	91
2	6355	0.045	95
2	6498	0.046	100
2	6641	0.047	104
2	6778	0.048	108
2	6926	0.049	113
2	7061	0.05	117
2	7208	0.051	116
2	7343	0.052	120
2	7488	0.053	124
2	7627	0.054	129
2	7772	0.055	133
2	7911	0.056	137
2	8056	0.057	142
2	8193	0.058	146
2	8338	0.059	151
2	8477	0.06	143
2	8616	0.061	147
2	8763	0.062	152
2	8899	0.063	156
2	9042	0.064	161
2	9183	0.065	165
2	9324	0.066	169
2	9465	0.067	174
2	9608	0.068	178
2	9749	0.069	167
2	9886	0.07	171
3	85	0.001	4
3	226	0.002	4
3	377	0.003	4
3	523	0.004	9
3	670	0.005	5
3	811	0.006	9
3	963	0.007	6
3	1102	0.008	10
3	1244	0.009	14
3	1387	0.01	14
3	1531	0.011	18
3	1671	0.012	22
3	1813	0.013	27
3	1959	0.014	15
3	2099	0.015	19
3	2241	0.016	23
3	2387	0.017	28
3	2527	0.018	32
3	2668	0.019	27
3	2810	0.02	32
3	2956	0.021	36
3	3092	0.022	40
3	3240	0.023	29
3	3378	0.024	33
3	3520	0.025	37
3	3662	0.026	42
3	3806	0.027	37
3	3948	0.028	41
3	4088	0.029	45
3	4234	0.03	50
3	4376	0.031	54
3	4517	0.032	58
3	4656	0.033	47
3	4803	0.034	51
3	4936	0.035	55
3	5086	0.036	60
3	5223	0.037	64
3	5366	0.038	68
3	5506	0.039	73
3	5651	0.04	49
3	5790	0.041	53
3	5934	0.042	58
3	6073	0.043	62
3	6219	0.044	66
3	6356	0.045	60
3	6499	0.046	65
3	6642	0.047	69
3	6779	0.048	73
3	6927	0.049	78
3	7062	0.05	82
3	7209	0.051	62
3	7344	0.052	67
3	7489	0.053	71
3	7628	0.054	75
3	7773	0.055	80
3	7912	0.056	84
3	8057	0.057	76
3	8194	0.058	80
3	8339	0.059	85
3	8478	0.06	89
3	8617	0.061	93
3	8764	0.062	98
3	8900	0.063	102
3	9043	0.064	106
3	9184	0.065	98
3	9325	0.066	102
3	9466	0.067	106
3	9609	0.068	111
3	9750	0.069	115
3	9887	0.07	119
4	86	0.001	4
4	227	0.002	4
4	378	0.003	5
4	524	0.004	7
4	671	0.005	12
4	812	0.006	6
4	964	0.007	11
4	1103	0.008	11
4	1245	0.009	16
4	1388	0.01	20
4	1532	0.011	12
4	1672	0.012	17
4	1814	0.013	21
4	1960	0.014	21
4	2100	0.015	25
4	2242	0.016	30
4	2388	0.017	34
4	2528	0.018	32
4	2669	0.019	36
4	2811	0.02	41
4	2957	0.021	41
4	3093	0.022	45
4	3241	0.023	50
4	3379	0.024	42
4	3521	0.025	47
4	3663	0.026	51
4	3807	0.027	56
4	3949	0.028	40
4	4089	0.029	45
4	4235	0.03	49
4	4377	0.031	54
4	4518	0.032	41
4	4657	0.033	45
4	4804	0.034	50
4	4937	0.035	54
4	5087	0.036	51
4	5224	0.037	55
4	5367	0.038	60
4	5507	0.039	64
4	5652	0.04	69
4	5791	0.041	48
4	5935	0.042	52
4	6074	0.043	57
4	6220	0.044	61
4	6357	0.045	46
4	6500	0.046	50
4	6643	0.047	55
4	6780	0.048	59
4	6928	0.049	56
4	7063	0.05	60
4	7210	0.051	65
4	7345	0.052	69
4	7490	0.053	73
4	7629	0.054	53
4	7774	0.055	57
4	7913	0.056	62
4	8058	0.057	66
4	8195	0.058	71
4	8340	0.059	68
4	8479	0.06	73
4	8618	0.061	77
4	8765	0.062	82
4	8901	0.063	86
4	9044	0.064	90
4	9185	0.065	95
4	9326	0.066	98
4	9467	0.067	103
4	9610	0.068	107
4	9751	0.069	112
4	9888	0.07	99
5	87	0.001	4
5	228	0.002	4
5	379	0.003	4
5	525	0.004	5
5	672	0.005	5
5	813	0.006	7
5	965	0.007	12
5	1104	0.008	4
5	1246	0.009	8
5	1389	0.01	4
5	1533	0.011	9
5	1673	0.012	13
5	1815	0.013	4
5	1961	0.014	9
5	2101	0.015	13
5	2243	0.016	4
5	2389	0.017	9
5	2529	0.018	13
5	2670	0.019	17
5	2812	0.02	18
5	2958	0.021	23
5	3094	0.022	15
5	3242	0.023	19
5	3380	0.024	24
5	3522	0.025	10
5	3664	0.026	14
5	3808	0.027	19
5	3950	0.028	22
5	4090	0.029	26
5	4236	0.03	30
5	4378	0.031	17
5	4519	0.032	21
5	4658	0.033	25
5	4805	0.034	30
5	4938	0.035	10
5	5088	0.036	14
5	5225	0.037	19
5	5368	0.038	23
5	5508	0.039	24
5	5653	0.04	28
5	5792	0.041	33
5	5936	0.042	34
5	6075	0.043	38
5	6221	0.044	43
5	6358	0.045	47
5	6501	0.046	34
5	6644	0.047	39
5	6781	0.048	43
5	6929	0.049	47
5	7064	0.05	41
5	7211	0.051	46
5	7346	0.052	50
5	7491	0.053	54
5	7630	0.054	54
5	7775	0.055	58
5	7914	0.056	62
5	8059	0.057	67
5	8196	0.058	55
5	8341	0.059	59
5	8480	0.06	63
5	8619	0.061	68
5	8766	0.062	72
5	8902	0.063	46
5	9045	0.064	51
5	9186	0.065	55
5	9327	0.066	59
5	9468	0.067	48
5	9611	0.068	52
5	9752	0.069	56
5	9889	0.07	60
6	88	0.001	4
6	229	0.002	4
6	380	0.003	5
6	526	0.004	4
6	673	0.005	5
6	814	0.006	4
6	966	0.007	9
6	1105	0.008	4
6	1247	0.009	9
6	1390	0.01	4
6	1534	0.011	9
6	1674	0.012	7
6	1816	0.013	12
6	1962	0.014	16
6	2102	0.015	5
6	2244	0.016	9
6	2390	0.017	14
6	2530	0.018	4
6	2671	0.019	9
6	2813	0.02	13
6	2959	0.021	5
6	3095	0.022	9
6	3243	0.023	9
6	3381	0.024	13
6	3523	0.025	17
6	3665	0.026	5
6	3809	0.027	9
6	3951	0.028	14
6	4091	0.029	4
6	4237	0.03	9
6	4379	0.031	13
6	4520	0.032	5
6	4659	0.033	9
6	4806	0.034	14
6	4939	0.035	12
6	5089	0.036	17
6	5226	0.037	21
6	5369	0.038	20
6	5509	0.039	24
6	5654	0.04	29
6	5793	0.041	28
6	5937	0.042	33
6	6076	0.043	37
6	6222	0.044	21
6	6359	0.045	25
6	6502	0.046	30
6	6645	0.047	34
6	6782	0.048	11
6	6930	0.049	15
6	7065	0.05	19
6	7212	0.051	24
6	7347	0.052	11
6	7492	0.053	16
6	7631	0.054	20
6	7776	0.055	25
6	7915	0.056	4
6	8060	0.057	9
6	8197	0.058	13
6	8342	0.059	18
6	8481	0.06	4
6	8620	0.061	9
6	8767	0.062	13
6	8903	0.063	18
6	9046	0.064	5
6	9187	0.065	10
6	9328	0.066	14
6	9469	0.067	19
6	9612	0.068	4
6	9753	0.069	9
6	9890	0.07	13
7	89	0.001	4
7	230	0.002	4
7	381	0.003	4
7	527	0.004	5
7	674	0.005	4
7	815	0.006	4
7	967	0.007	5
7	1106	0.008	9
7	1248	0.009	4
7	1391	0.01	9
7	1535	0.011	4
7	1675	0.012	8
7	1817	0.013	4
7	1963	0.014	9
7	2103	0.015	8
7	2245	0.016	12
7	2391	0.017	5
7	2531	0.018	9
7	2672	0.019	13
7	2814	0.02	5
7	2960	0.021	9
7	3096	0.022	4
7	3244	0.023	9
7	3382	0.024	4
7	3524	0.025	8
7	3666	0.026	12
7	3810	0.027	5
7	3952	0.028	9
7	4092	0.029	6
7	4238	0.03	11
7	4380	0.031	12
7	4521	0.032	16
7	4660	0.033	21
7	4807	0.034	8
7	4940	0.035	12
7	5090	0.036	17
7	5227	0.037	4
7	5370	0.038	8
7	5510	0.039	12
7	5655	0.04	15
7	5794	0.041	19
7	5938	0.042	23
7	6077	0.043	5
7	6223	0.044	9
7	6360	0.045	13
7	6503	0.046	5
7	6646	0.047	9
7	6783	0.048	13
7	6931	0.049	5
7	7066	0.05	9
7	7213	0.051	13
7	7348	0.052	17
7	7493	0.053	5
7	7632	0.054	9
7	7777	0.055	13
7	7916	0.056	18
7	8061	0.057	4
7	8198	0.058	8
7	8343	0.059	13
7	8482	0.06	17
7	8621	0.061	4
7	8768	0.062	9
7	8904	0.063	13
7	9047	0.064	17
7	9188	0.065	4
7	9329	0.066	9
7	9470	0.067	13
7	9613	0.068	6
7	9754	0.069	11
7	9891	0.07	15
8	90	0.001	4
8	231	0.002	5
8	382	0.003	4
8	528	0.004	5
8	675	0.005	4
8	816	0.006	5
8	968	0.007	4
8	1107	0.008	9
8	1249	0.009	4
8	1392	0.01	9
8	1536	0.011	4
8	1676	0.012	9
8	1818	0.013	4
8	1964	0.014	9
8	2104	0.015	5
8	2246	0.016	9
8	2392	0.017	5
8	2532	0.018	9
8	2673	0.019	14
8	2815	0.02	4
8	2961	0.021	9
8	3097	0.022	4
8	3245	0.023	9
8	3383	0.024	4
8	3525	0.025	9
8	3667	0.026	4
8	3811	0.027	9
8	3953	0.028	5
8	4093	0.029	9
8	4239	0.03	5
8	4381	0.031	9
8	4522	0.032	14
8	4661	0.033	4
8	4808	0.034	9
8	4941	0.035	13
8	5091	0.036	5
8	5228	0.037	9
8	5371	0.038	14
8	5511	0.039	4
8	5656	0.04	9
8	5795	0.041	13
8	5939	0.042	5
8	6078	0.043	10
8	6224	0.044	13
8	6361	0.045	18
8	6504	0.046	22
8	6647	0.047	11
8	6784	0.048	15
8	6932	0.049	20
8	7067	0.05	4
8	7214	0.051	9
8	7349	0.052	13
8	7494	0.053	5
8	7633	0.054	9
8	7778	0.055	14
8	7917	0.056	14
8	8062	0.057	18
8	8199	0.058	23
8	8344	0.059	4
8	8483	0.06	9
8	8622	0.061	13
8	8769	0.062	16
8	8905	0.063	20
8	9048	0.064	25
8	9189	0.065	29
8	9330	0.066	5
8	9471	0.067	9
8	9614	0.068	14
8	9755	0.069	4
8	9892	0.07	9
9	91	0.001	4
9	232	0.002	4
9	383	0.003	5
9	529	0.004	4
9	676	0.005	5
9	817	0.006	4
9	969	0.007	5
9	1108	0.008	4
9	1250	0.009	8
9	1393	0.01	5
9	1537	0.011	9
9	1677	0.012	5
9	1819	0.013	9
9	1965	0.014	5
9	2105	0.015	9
9	2247	0.016	5
9	2393	0.017	9
9	2533	0.018	4
9	2674	0.019	9
9	2816	0.02	13
9	2962	0.021	5
9	3098	0.022	9
9	3246	0.023	5
9	3384	0.024	9
9	3526	0.025	5
9	3668	0.026	9
9	3812	0.027	4
9	3954	0.028	9
9	4094	0.029	4
9	4240	0.03	9
9	4382	0.031	4
9	4523	0.032	9
9	4662	0.033	13
9	4809	0.034	5
9	4942	0.035	9
9	5092	0.036	4
9	5229	0.037	9
9	5372	0.038	13
9	5512	0.039	5
9	5657	0.04	9
9	5796	0.041	14
9	5940	0.042	4
9	6079	0.043	8
9	6225	0.044	5
9	6362	0.045	9
9	6505	0.046	14
9	6648	0.047	4
9	6785	0.048	9
9	6933	0.049	4
9	7068	0.05	9
9	7215	0.051	13
9	7350	0.052	4
9	7495	0.053	9
9	7634	0.054	13
9	7779	0.055	5
9	7918	0.056	9
9	8063	0.057	14
9	8200	0.058	4
9	8345	0.059	9
9	8484	0.06	13
9	8623	0.061	4
9	8770	0.062	9
9	8906	0.063	13
9	9049	0.064	5
9	9190	0.065	9
9	9331	0.066	14
9	9472	0.067	4
9	9615	0.068	9
9	9756	0.069	13
9	9893	0.07	4
10	101	0.001	0
10	242	0.002	0
10	393	0.003	0
10	539	0.004	0
10	686	0.005	0
10	827	0.006	0
10	979	0.007	0
10	1118	0.008	0
10	1260	0.009	0
10	1403	0.01	0
10	1547	0.011	0
10	1687	0.012	0
10	1829	0.013	0
10	1975	0.014	0
10	2115	0.015	0
10	2257	0.016	0
10	2403	0.017	0
10	2543	0.018	0
10	2684	0.019	0
10	2826	0.02	0
10	2972	0.021	0
10	3108	0.022	0
10	3256	0.023	0
10	3394	0.024	0
10	3536	0.025	0
10	3678	0.026	0
10	3822	0.027	0
10	3964	0.028	0
10	4104	0.029	0
10	4250	0.03	0
10	4392	0.031	0
10	4533	0.032	0
10	4672	0.033	0
10	4819	0.034	0
10	4952	0.035	0
10	5102	0.036	0
10	5239	0.037	0
10	5382	0.038	0
10	5522	0.039	0
10	5667	0.04	0
10	5806	0.041	0
10	5950	0.042	0
10	6089	0.043	0
10	6235	0.044	0
10	6372	0.045	0
10	6515	0.046	0
10	6658	0.047	0
10	6795	0.048	0
10	6943	0.049	0
10	7078	0.05	0
10	7225	0.051	0
10	7360	0.052	0
10	7505	0.053	0
10	7644	0.054	0
10	7789	0.055	0
10	7928	0.056	0
10	8073	0.057	0
10	8210	0.058	0
10	8355	0.059	0
10	8494	0.06	0
10	8633	0.061	0
10	8780	0.062	0
10	8916	0.063	0
10	9059	0.064	0
10	9200	0.065	0
10	9341	0.066	0
10	9482	0.067	0
10	9625	0.068	0
10	9766	0.069	0
10	9903	0.07	0
11	101	0.001	10
11	242	0.002	21
11	393	0.003	37
11	539	0.004	51
11	686	0.005	66
11	827	0.006	78
11	979	0.007	96
11	1118	0.008	108
11	1260	0.009	122
11	1403	0.01	136
11	1547	0.011	151
11	1687	0.012	164
11	1829	0.013	178
11	1975	0.014	194
11	2115	0.015	207
11	2257	0.016	221
11	2403	0.017	237
11	2543	0.018	250
11	2684	0.019	264
11	2826	0.02	278
11	2972	0.021	294
11	3108	0.022	305
11	3256	0.023	322
11	3394	0.024	334
11	3536	0.025	348
11	3678	0.026	362
11	3822	0.027	377
11	3964	0.028	391
11	4104	0.029	404
11	4250	0.03	420
11	4392	0.031	434
11	4533	0.032	448
11	4672	0.033	461
11	4819	0.034	478
11	4952	0.035	488
11	5102	0.036	506
11	5239	0.037	518
11	5382	0.038	533
11	5522	0.039	546
11	5667	0.04	562
11	5806	0.041	575
11	5950	0.042	590
11	6089	0.043	603
11	6235	0.044	619
11	6372	0.045	631
11	6515	0.046	646
11	6658	0.047	661
11	6795	0.048	673
11	6943	0.049	690
11	7078	0.05	701
11	7225	0.051	718
11	7360	0.052	729
11	7505	0.053	745
11	7644	0.054	758
11	7789	0.055	774
11	7928	0.056	787
11	8073	0.057	803
11	8210	0.058	815
11	8355	0.059	831
11	8494	0.06	844
11	8633	0.061	857
11	8780	0.062	874
11	8916	0.063	886
11	9059	0.064	901
11	9200	0.065	915
11	9341	0.066	929
11	9482	0.067	943
11	9625	0.068	958
11	9766	0.069	972
11	9903	0.07	984
12	102	0.001	0
12	243	0.002	0
12	394	0.003	0
12	540	0.004	0
12	687	0.005	0
12	828	0.006	0
12	982	0.007	0
12	1261	0.009	0
12	1548	0.011	0
12	1830	0.013	0
12	2116	0.015	0
12	2405	0.017	0
12	2827	0.02	0
12	3109	0.022	0
12	3395	0.024	0
12	3680	0.026	0
12	3966	0.028	0
12	4251	0.03	0
12	4673	0.033	0
12	4954	0.035	0
12	5383	0.038	0
12	5807	0.041	0
12	6091	0.043	0
12	6516	0.046	0
12	6797	0.048	0
12	7226	0.051	0
12	7645	0.054	0
12	8074	0.057	0
12	8496	0.06	0
12	8917	0.063	0
12	9342	0.066	0
12	9767	0.069	0
13	103	0.001	0
13	244	0.002	0
13	395	0.003	0
13	541	0.004	0
13	689	0.005	0
13	829	0.006	0
13	1119	0.008	0
13	1404	0.01	0
13	1688	0.012	0
13	1977	0.014	0
13	2258	0.016	0
13	2685	0.019	0
13	2973	0.021	0
13	3257	0.023	0
13	3538	0.025	0
13	3824	0.027	0
13	4105	0.029	0
13	4534	0.032	0
13	4953	0.035	0
13	5384	0.038	0
13	5808	0.041	0
13	6092	0.043	9
13	6517	0.046	6
13	6944	0.049	0
13	7362	0.052	0
13	7791	0.055	9
13	8211	0.058	0
13	8635	0.061	11
13	9201	0.065	0
13	9626	0.068	0
14	104	0.001	0
14	245	0.002	0
14	396	0.003	0
14	542	0.004	0
14	690	0.005	0
14	831	0.006	0
14	1120	0.008	0
14	1405	0.01	0
14	1690	0.012	0
14	1978	0.014	4
14	2259	0.016	0
14	2686	0.019	0
14	2974	0.021	0
14	3258	0.023	0
14	3679	0.026	0
14	3967	0.028	2
14	4253	0.03	8
14	4674	0.033	4
14	5103	0.036	0
14	5524	0.039	10
14	5951	0.042	0
14	6373	0.045	0
14	6796	0.048	0
14	7361	0.052	0
14	7929	0.056	0
14	8495	0.06	0
14	9060	0.064	0
14	9484	0.067	2
14	9904	0.07	0
15	105	0.001	0
15	246	0.002	0
15	397	0.003	0
15	544	0.004	0
15	691	0.005	0
15	980	0.007	0
15	1262	0.009	0
15	1550	0.011	3
15	1976	0.014	0
15	2404	0.017	0
15	2828	0.02	0
15	3111	0.022	4
15	3537	0.025	0
15	3965	0.028	0
15	4393	0.031	0
15	4821	0.034	8
15	5241	0.037	15
15	5669	0.04	24
15	6090	0.043	16
15	6659	0.047	6
15	7227	0.051	7
15	7790	0.055	0
15	8356	0.059	0
15	8918	0.063	1
15	9483	0.067	0
16	106	0.001	0
16	247	0.002	0
16	398	0.003	0
16	545	0.004	1
16	692	0.005	3
16	981	0.007	0
16	1263	0.009	0
16	1689	0.012	0
16	2117	0.015	0
16	2687	0.019	14
16	2975	0.021	11
16	3396	0.024	6
16	3825	0.027	18
16	4252	0.03	12
16	4820	0.034	6
16	5385	0.038	20
16	5809	0.041	30
16	6374	0.045	30
16	6945	0.049	37
16	7507	0.053	49
16	8075	0.057	51
16	8781	0.062	42
16	9343	0.066	43
16	9905	0.07	45
17	107	0.001	0
17	248	0.002	0
17	400	0.003	3
17	688	0.005	2
17	983	0.007	7
17	1406	0.01	8
17	1832	0.013	16
17	2406	0.017	27
17	2829	0.02	37
17	3259	0.023	38
17	3823	0.027	36
17	4394	0.031	37
17	4955	0.035	46
17	5668	0.04	44
17	6236	0.044	41
17	6798	0.048	51
17	7506	0.053	48
17	8212	0.058	64
17	9202	0.065	94
17	9768	0.069	95
18	108	0.001	0
18	249	0.002	0
18	543	0.004	1
18	832	0.006	1
18	1264	0.009	9
18	1831	0.013	11
18	2545	0.018	23
18	3110	0.022	24
18	3681	0.026	33
18	4535	0.032	42
18	5523	0.039	45
18	6237	0.044	56
18	7079	0.05	58
18	7930	0.056	72
18	9061	0.064	93
19	109	0.001	2
19	399	0.003	5
19	830	0.006	9
19	1549	0.011	16
19	2544	0.018	26
19	3397	0.024	49
19	4106	0.029	56
19	5240	0.037	67
19	5952	0.042	82
19	7080	0.05	111
19	8357	0.059	139
19	9627	0.068	162
20	110	0.001	0.000774837385
20	111	0.001	0.00054967477
20	112	0.001	0.000324512155
20	113	0.001	9.934954e-005
20	114	0.001	0.000779544573
20	115	0.001	0.000559089146
20	116	0.001	0.000338633719
20	117	0.001	0.000118178292
20	118	0.001	0.000767838164
20	119	0.001	0.000535676328
20	120	0.001	0.000303514492
20	121	0.001	7.1352656e-005
20	122	0.001	0.000776756926
20	123	0.001	0.000553513852
20	124	0.001	0.000330270778
20	125	0.001	0.000107027704
20	126	0.001	0.000767400412
20	127	0.001	0.000534800824
20	128	0.001	0.000302201236
20	129	0.001	6.9601648e-005
20	130	0.001	0.00077536294
20	131	0.001	0.00055072588
20	132	0.001	0.00032608882
20	133	0.001	0.00010145176
20	134	0.001	0.000767957636
20	135	0.001	0.000535915272
20	136	0.001	0.000303872908
20	137	0.001	7.1830544e-005
20	138	0.001	0.000772327391
20	139	0.001	0.000544654782
20	251	0.002	0.000874186925
20	252	0.002	0.00064902431
20	253	0.002	0.000423861695
20	254	0.002	0.00019869908
20	255	0.002	0.000897722865
20	256	0.002	0.000677267438
20	257	0.002	0.000456812011
20	258	0.002	0.000236356584
20	259	0.002	1.5901157e-005
20	260	0.002	0.00083919082
20	261	0.002	0.000607028984
20	262	0.002	0.000374867148
20	263	0.002	0.000142705312
20	264	0.002	0.00088378463
20	265	0.002	0.000660541556
20	266	0.002	0.000437298482
20	267	0.002	0.000214055408
20	268	0.002	0.00083700206
20	269	0.002	0.000604402472
20	270	0.002	0.000371802884
20	271	0.002	0.000139203296
20	272	0.002	0.0008768147
20	273	0.002	0.00065217764
20	274	0.002	0.00042754058
20	275	0.002	0.00020290352
20	276	0.002	0.00083978818
20	277	0.002	0.000607745816
20	278	0.002	0.000375703452
20	279	0.002	0.000143661088
20	280	0.002	0.001775608704
20	401	0.003	0.000973536465
20	402	0.003	0.00074837385
20	403	0.003	0.000523211235
20	404	0.003	0.00029804862
20	405	0.003	7.2886005e-005
20	406	0.003	0.00079544573
20	407	0.003	0.000574990303
20	408	0.003	0.000354534876
20	409	0.003	0.000134079449
20	410	0.003	0.000910543476
20	411	0.003	0.00067838164
20	412	0.003	0.000446219804
20	413	0.003	0.000214057968
20	414	0.003	0.000990812334
20	415	0.003	0.00076756926
20	416	0.003	0.000544326186
20	417	0.003	0.000321083112
20	418	0.003	9.7840038e-005
20	419	0.003	0.000906603708
20	420	0.003	0.00067400412
20	421	0.003	0.000441404532
20	422	0.003	0.000208804944
20	423	0.003	0.002316982173
20	424	0.003	0.002089309564
20	425	0.003	0.001861636955
20	426	0.003	0.001633964346
20	427	0.003	0.001406291737
20	428	0.003	0.001178619128
20	429	0.003	0.00097826646
20	430	0.003	0.0007536294
20	546	0.004	0.00084772339
20	547	0.004	0.000622560775
20	548	0.004	0.00039739816
20	549	0.004	0.000172235545
20	550	0.004	0.000913624022
20	551	0.004	0.000693168595
20	552	0.004	0.000472713168
20	553	0.004	0.000252257741
20	554	0.004	3.1802314e-005
20	555	0.004	0.000981896132
20	556	0.004	0.000749734296
20	557	0.004	0.00051757246
20	558	0.004	0.000285410624
20	559	0.004	5.3248788e-005
20	560	0.004	0.001911618724
20	561	0.004	0.00167957636
20	562	0.004	0.001447533996
20	563	0.004	0.001215491632
20	564	0.004	0.000983449268
20	565	0.004	0.000751406904
20	566	0.004	0.00051936454
20	567	0.004	0.000287322176
20	568	0.004	0.000874596964
20	569	0.004	0.00065135389
20	570	0.004	0.000428110816
20	571	0.004	0.000204867742
20	572	0.004	0.000976205356
20	573	0.004	0.000743605768
20	574	0.004	0.00051100618
20	575	0.004	0.000278406592
20	693	0.005	0.00094707293
20	694	0.005	0.000721910315
20	695	0.005	0.0004967477
20	696	0.005	0.000271585085
20	697	0.005	4.642247e-005
20	698	0.005	0.00252899234
20	699	0.005	0.00230435528
20	700	0.005	0.00207971822
20	701	0.005	0.00185508116
20	702	0.005	0.0016304441
20	703	0.005	0.00140580704
20	704	0.005	0.00118116998
20	705	0.005	0.00095653292
20	706	0.005	0.00073189586
20	707	0.005	0.0005072588
20	708	0.005	0.000811346887
20	709	0.005	0.00059089146
20	710	0.005	0.000370436033
20	711	0.005	0.000149980606
20	712	0.005	0.000821086952
20	713	0.005	0.000588925116
20	714	0.005	0.00035676328
20	715	0.005	0.000124601444
20	716	0.005	0.000981624668
20	717	0.005	0.000758381594
20	718	0.005	0.00053513852
20	719	0.005	0.000311895446
20	720	0.005	8.8652372e-005
20	721	0.005	0.001045807004
20	722	0.005	0.000813207416
20	833	0.006	0.000821259855
20	834	0.006	0.00059609724
20	835	0.006	0.000370934625
20	836	0.006	0.00014577201
20	837	0.006	0.000929525179
20	838	0.006	0.000709069752
20	839	0.006	0.000488614325
20	840	0.006	0.000268158898
20	841	0.006	4.7703471e-005
20	842	0.006	0.003950946519
20	843	0.006	0.00372327391
20	844	0.006	0.003495601301
20	845	0.006	0.003267928692
20	846	0.006	0.003040256083
20	847	0.006	0.002812583474
20	848	0.006	0.002584910865
20	849	0.006	0.002357238256
20	850	0.006	0.002129565647
20	851	0.006	0.000892439608
20	852	0.006	0.000660277772
20	853	0.006	0.000428115936
20	854	0.006	0.0001959541
20	855	0.006	0.002055279812
20	856	0.006	0.001823237448
20	857	0.006	0.001591195084
20	858	0.006	0.00135915272
20	859	0.006	0.001127110356
20	860	0.006	0.000895067992
20	861	0.006	0.000663025628
20	862	0.006	0.000430983264
20	984	0.007	0.001865409298
20	985	0.007	0.001642166224
20	986	0.007	0.00141892315
20	987	0.007	0.001195680076
20	988	0.007	0.000972437002
20	989	0.007	0.000749193928
20	990	0.007	0.000525950854
20	991	0.007	0.00030270778
20	992	0.007	7.9464706e-005
20	993	0.007	0.002580607828
20	994	0.007	0.00234800824
20	995	0.007	0.002115408652
20	996	0.007	0.001882809064
20	997	0.007	0.001650209476
20	998	0.007	0.001417609888
20	999	0.007	0.0011850103
20	1000	0.007	0.000952410712
20	1001	0.007	0.000719811124
20	1002	0.007	0.000487211536
20	1003	0.007	0.000254611948
20	1004	0.007	2.201236e-005
20	1005	0.007	0.000920609395
20	1006	0.007	0.00069544678
20	1007	0.007	0.000470284165
20	1008	0.007	0.00024512155
20	1009	0.007	1.9958935e-005
20	1010	0.007	0.00228262174
20	1011	0.007	0.00205798468
20	1012	0.007	0.00183334762
20	1013	0.007	0.00160871056
20	1122	0.008	0.001827248044
20	1123	0.008	0.001606792617
20	1124	0.008	0.00138633719
20	1125	0.008	0.001165881763
20	1126	0.008	0.000945426336
20	1127	0.008	0.000724970909
20	1128	0.008	0.000504515482
20	1129	0.008	0.000284060055
20	1130	0.008	6.3604628e-005
20	1131	0.008	0.001963792264
20	1132	0.008	0.001731630428
20	1133	0.008	0.001499468592
20	1134	0.008	0.001267306756
20	1135	0.008	0.00103514492
20	1136	0.008	0.000802983084
20	1137	0.008	0.000570821248
20	1138	0.008	0.000338659412
20	1139	0.008	0.000106497576
20	1140	0.008	0.007551217408
20	1141	0.008	0.007326826112
20	1142	0.008	0.007102434816
20	1143	0.008	0.00687804352
20	1144	0.008	0.006653652224
20	1145	0.008	0.006429260928
20	1146	0.008	0.006204869632
20	1147	0.008	0.005980478336
20	1148	0.008	0.00575608704
20	1149	0.008	0.005531695744
20	1150	0.008	0.005307304448
20	1151	0.008	0.005082913152
20	1265	0.009	0.00179479632
20	1266	0.009	0.001569633705
20	1267	0.009	0.00134447109
20	1268	0.009	0.001119308475
20	1269	0.009	0.00089414586
20	1270	0.009	0.000668983245
20	1271	0.009	0.00044382063
20	1272	0.009	0.000218658015
20	1273	0.009	0.001856221632
20	1274	0.009	0.001632978558
20	1275	0.009	0.001409735484
20	1276	0.009	0.00118649241
20	1277	0.009	0.000963249336
20	1278	0.009	0.000740006262
20	1279	0.009	0.000516763188
20	1280	0.009	0.000293520114
20	1281	0.009	7.027704e-005
20	1282	0.009	0.001789412772
20	1283	0.009	0.001556813184
20	1284	0.009	0.001324213596
20	1285	0.009	0.001091614008
20	1286	0.009	0.00085901442
20	1287	0.009	0.000626414832
20	1288	0.009	0.000393815244
20	1289	0.009	0.000161215656
20	1290	0.009	0.0031989409
20	1291	0.009	0.002966898536
20	1292	0.009	0.002734856172
20	1293	0.009	0.002502813808
20	1294	0.009	0.002270771444
20	1407	0.01	0.001843149201
20	1408	0.01	0.001622693774
20	1409	0.01	0.001402238347
20	1410	0.01	0.00118178292
20	1411	0.01	0.000961327493
20	1412	0.01	0.000740872066
20	1413	0.01	0.000520416639
20	1414	0.01	0.000299961212
20	1415	0.01	7.9505785e-005
20	1416	0.01	0.00187433574
20	1417	0.01	0.001642173904
20	1418	0.01	0.001410012068
20	1419	0.01	0.001177850232
20	1420	0.01	0.000945688396
20	1421	0.01	0.00071352656
20	1422	0.01	0.000481364724
20	1423	0.01	0.000249202888
20	1424	0.01	1.7041052e-005
20	1425	0.01	0.0043840735
20	1426	0.01	0.00415943644
20	1427	0.01	0.00393479938
20	1428	0.01	0.00371016232
20	1429	0.01	0.00348552526
20	1430	0.01	0.0032608882
20	1431	0.01	0.00303625114
20	1432	0.01	0.00281161408
20	1433	0.01	0.00258697702
20	1434	0.01	0.00236233996
20	1435	0.01	0.0021377029
20	1436	0.01	0.00191306584
20	1551	0.011	0.0019934954
20	1552	0.011	0.001768332785
20	1553	0.011	0.00154317017
20	1554	0.011	0.001318007555
20	1555	0.011	0.00109284494
20	1556	0.011	0.000867682325
20	1557	0.011	0.00064251971
20	1558	0.011	0.000417357095
20	1559	0.011	0.00019219448
20	1560	0.011	0.006901893038
20	1561	0.011	0.006674220429
20	1562	0.011	0.00644654782
20	1563	0.011	0.006218875211
20	1564	0.011	0.005991202602
20	1565	0.011	0.005763529993
20	1566	0.011	0.005535857384
20	1567	0.011	0.005308184775
20	1568	0.011	0.005080512166
20	1569	0.011	0.004852839557
20	1570	0.011	0.004625166948
20	1571	0.011	0.004397494339
20	1572	0.011	0.00416982173
20	1573	0.011	0.003942149121
20	1574	0.011	0.003714476512
20	1575	0.011	0.001847033966
20	1576	0.011	0.001623790892
20	1577	0.011	0.001400547818
20	1578	0.011	0.001177304744
20	1579	0.011	0.00095406167
20	1580	0.011	0.000730818596
20	1691	0.012	0.001859050358
20	1692	0.012	0.001638594931
20	1693	0.012	0.001418139504
20	1694	0.012	0.001197684077
20	1695	0.012	0.00097722865
20	1696	0.012	0.000756773223
20	1697	0.012	0.000536317796
20	1698	0.012	0.000315862369
20	1699	0.012	9.5406942e-005
20	1700	0.012	0.002928616068
20	1701	0.012	0.00269601648
20	1702	0.012	0.002463416892
20	1703	0.012	0.002230817304
20	1704	0.012	0.001998217716
20	1705	0.012	0.001765618128
20	1706	0.012	0.00153301854
20	1707	0.012	0.001300418952
20	1708	0.012	0.001067819364
20	1709	0.012	0.000835219776
20	1710	0.012	0.000602620188
20	1711	0.012	0.0003700206
20	1712	0.012	0.000137421012
20	1713	0.012	0.001784879216
20	1714	0.012	0.00155271738
20	1715	0.012	0.001320555544
20	1716	0.012	0.001088393708
20	1717	0.012	0.000856231872
20	1718	0.012	0.000624070036
20	1719	0.012	0.0003919082
20	1720	0.012	0.000159746364
20	1833	0.013	0.001967031865
20	1834	0.013	0.00174186925
20	1835	0.013	0.001516706635
20	1836	0.013	0.00129154402
20	1837	0.013	0.001066381405
20	1838	0.013	0.00084121879
20	1839	0.013	0.000616056175
20	1840	0.013	0.00039089356
20	1841	0.013	0.000165730945
20	1842	0.013	0.00603872908
20	1843	0.013	0.005806686716
20	1844	0.013	0.005574644352
20	1845	0.013	0.005342601988
20	1846	0.013	0.005110559624
20	1847	0.013	0.00487851726
20	1848	0.013	0.004646474896
20	1849	0.013	0.004414432532
20	1850	0.013	0.004182390168
20	1851	0.013	0.003950347804
20	1852	0.013	0.00371830544
20	1853	0.013	0.003486263076
20	1854	0.013	0.003254220712
20	1855	0.013	0.003022178348
20	1856	0.013	0.002790135984
20	1857	0.013	0.00255809362
20	1858	0.013	0.00468842878
20	1859	0.013	0.00446379172
20	1860	0.013	0.00423915466
20	1861	0.013	0.0040145176
20	1862	0.013	0.00378988054
20	1979	0.014	0.003507575522
20	1980	0.014	0.003284332448
20	1981	0.014	0.003061089374
20	1982	0.014	0.0028378463
20	1983	0.014	0.002614603226
20	1984	0.014	0.002391360152
20	1985	0.014	0.002168117078
20	1986	0.014	0.001944874004
20	1987	0.014	0.00172163093
20	1988	0.014	0.001498387856
20	1989	0.014	0.001275144782
20	1990	0.014	0.001051901708
20	1991	0.014	0.000828658634
20	1992	0.014	0.00060541556
20	1993	0.014	0.000382172486
20	1994	0.014	0.000158929412
20	1995	0.014	0.001874951515
20	1996	0.014	0.001654496088
20	1997	0.014	0.001434040661
20	1998	0.014	0.001213585234
20	1999	0.014	0.000993129807
20	2000	0.014	0.00077267438
20	2001	0.014	0.000552218953
20	2002	0.014	0.000331763526
20	2003	0.014	0.000111308099
20	2004	0.014	0.001927584528
20	2005	0.014	0.001695422692
20	2006	0.014	0.001463260856
20	2007	0.014	0.00123109902
20	2008	0.014	0.000998937184
20	2119	0.015	0.00194056833
20	2120	0.015	0.001715405715
20	2121	0.015	0.0014902431
20	2122	0.015	0.001265080485
20	2123	0.015	0.00103991787
20	2124	0.015	0.000814755255
20	2125	0.015	0.00058959264
20	2126	0.015	0.000364430025
20	2127	0.015	0.00013926741
20	2128	0.015	0.002904821424
20	2129	0.015	0.002672221836
20	2130	0.015	0.002439622248
20	2131	0.015	0.00220702266
20	2132	0.015	0.001974423072
20	2133	0.015	0.001741823484
20	2134	0.015	0.001509223896
20	2135	0.015	0.001276624308
20	2136	0.015	0.00104402472
20	2137	0.015	0.000811425132
20	2138	0.015	0.000578825544
20	2139	0.015	0.000346225956
20	2140	0.015	0.000113626368
20	2141	0.015	0.014776665181
20	2142	0.015	0.014553330362
20	2143	0.015	0.014329995543
20	2144	0.015	0.014106660724
20	2145	0.015	0.013883325905
20	2146	0.015	0.013659991086
20	2147	0.015	0.013436656267
20	2148	0.015	0.013213321448
20	2261	0.016	0.001890852672
20	2262	0.016	0.001670397245
20	2263	0.016	0.001449941818
20	2264	0.016	0.001229486391
20	2265	0.016	0.001009030964
20	2266	0.016	0.000788575537
20	2267	0.016	0.00056812011
20	2268	0.016	0.000347664683
20	2269	0.016	0.000127209256
20	2270	0.016	0.002766775348
20	2271	0.016	0.002534613512
20	2272	0.016	0.002302451676
20	2273	0.016	0.00207028984
20	2274	0.016	0.001838128004
20	2275	0.016	0.001605966168
20	2276	0.016	0.001373804332
20	2277	0.016	0.001141642496
20	2278	0.016	0.00090948066
20	2279	0.016	0.000677318824
20	2280	0.016	0.000445156988
20	2281	0.016	0.000212995152
20	2282	0.016	0.012858521856
20	2283	0.016	0.01263413056
20	2284	0.016	0.012409739264
20	2285	0.016	0.012185347968
20	2286	0.016	0.011960956672
20	2287	0.016	0.011736565376
20	2288	0.016	0.01151217408
20	2289	0.016	0.011287782784
20	2290	0.016	0.011063391488
20	2407	0.017	0.002935686338
20	2408	0.017	0.002712443264
20	2409	0.017	0.00248920019
20	2410	0.017	0.002265957116
20	2411	0.017	0.002042714042
20	2412	0.017	0.001819470968
20	2413	0.017	0.001596227894
20	2414	0.017	0.00137298482
20	2415	0.017	0.001149741746
20	2416	0.017	0.000926498672
20	2417	0.017	0.000703255598
20	2418	0.017	0.000480012524
20	2419	0.017	0.00025676945
20	2420	0.017	3.3526376e-005
20	2421	0.017	0.001914104795
20	2422	0.017	0.00168894218
20	2423	0.017	0.001463779565
20	2424	0.017	0.00123861695
20	2425	0.017	0.001013454335
20	2426	0.017	0.00078829172
20	2427	0.017	0.000563129105
20	2428	0.017	0.00033796649
20	2429	0.017	0.000112803875
20	2430	0.017	0.00756524348
20	2431	0.017	0.00734060642
20	2432	0.017	0.00711596936
20	2433	0.017	0.0068913323
20	2434	0.017	0.00666669524
20	2435	0.017	0.00644205818
20	2436	0.017	0.00621742112
20	2546	0.018	0.010486803903
20	2547	0.018	0.010259131294
20	2548	0.018	0.010031458685
20	2549	0.018	0.009803786076
20	2550	0.018	0.009576113467
20	2551	0.018	0.009348440858
20	2552	0.018	0.009120768249
20	2553	0.018	0.00889309564
20	2554	0.018	0.008665423031
20	2555	0.018	0.008437750422
20	2556	0.018	0.008210077813
20	2557	0.018	0.007982405204
20	2558	0.018	0.007754732595
20	2559	0.018	0.007527059986
20	2560	0.018	0.007299387377
20	2561	0.018	0.007071714768
20	2562	0.018	0.006844042159
20	2563	0.018	0.00661636955
20	2564	0.018	0.006388696941
20	2565	0.018	0.006161024332
20	2566	0.018	0.005933351723
20	2567	0.018	0.007326051256
20	2568	0.018	0.007094008892
20	2569	0.018	0.006861966528
20	2570	0.018	0.006629924164
20	2571	0.018	0.0063978818
20	2572	0.018	0.006165839436
20	2573	0.018	0.005933797072
20	2574	0.018	0.005701754708
20	2575	0.018	0.005469712344
20	2688	0.019	0.002906753829
20	2689	0.019	0.002686298402
20	2690	0.019	0.002465842975
20	2691	0.019	0.002245387548
20	2692	0.019	0.002024932121
20	2693	0.019	0.001804476694
20	2694	0.019	0.001584021267
20	2695	0.019	0.00136356584
20	2696	0.019	0.001143110413
20	2697	0.019	0.000922654986
20	2698	0.019	0.000702199559
20	2699	0.019	0.000481744132
20	2700	0.019	0.000261288705
20	2701	0.019	4.0833278e-005
20	2702	0.019	0.002980833316
20	2703	0.019	0.00274867148
20	2704	0.019	0.002516509644
20	2705	0.019	0.002284347808
20	2706	0.019	0.002052185972
20	2707	0.019	0.001820024136
20	2708	0.019	0.0015878623
20	2709	0.019	0.001355700464
20	2710	0.019	0.001123538628
20	2711	0.019	0.000891376792
20	2712	0.019	0.000659214956
20	2713	0.019	0.00042705312
20	2714	0.019	0.000194891284
20	2715	0.019	0.00388102678
20	2716	0.019	0.003648427192
20	2717	0.019	0.003415827604
20	2830	0.02	0.00288764126
20	2831	0.02	0.002662478645
20	2832	0.02	0.00243731603
20	2833	0.02	0.002212153415
20	2834	0.02	0.0019869908
20	2835	0.02	0.001761828185
20	2836	0.02	0.00153666557
20	2837	0.02	0.001311502955
20	2838	0.02	0.00108634034
20	2839	0.02	0.000861177725
20	2840	0.02	0.00063601511
20	2841	0.02	0.000410852495
20	2842	0.02	0.00018568988
20	2843	0.02	0.002810283302
20	2844	0.02	0.002587040228
20	2845	0.02	0.002363797154
20	2846	0.02	0.00214055408
20	2847	0.02	0.001917311006
20	2848	0.02	0.001694067932
20	2849	0.02	0.001470824858
20	2850	0.02	0.001247581784
20	2851	0.02	0.00102433871
20	2852	0.02	0.000801095636
20	2853	0.02	0.000577852562
20	2854	0.02	0.000354609488
20	2855	0.02	0.000131366414
20	2856	0.02	0.00899278406
20	2857	0.02	0.008768147
20	2858	0.02	0.00854350994
20	2859	0.02	0.00831887288
20	2976	0.021	0.001820377851
20	2977	0.021	0.001599922424
20	2978	0.021	0.001379466997
20	2979	0.021	0.00115901157
20	2980	0.021	0.000938556143
20	2981	0.021	0.000718100716
20	2982	0.021	0.000497645289
20	2983	0.021	0.000277189862
20	2984	0.021	5.6734435e-005
20	2985	0.021	0.001962729448
20	2986	0.021	0.001730567612
20	2987	0.021	0.001498405776
20	2988	0.021	0.00126624394
20	2989	0.021	0.001034082104
20	2990	0.021	0.000801920268
20	2991	0.021	0.000569758432
20	2992	0.021	0.000337596596
20	2993	0.021	0.00010543476
20	2994	0.021	0.005183228016
20	2995	0.021	0.004950628428
20	2996	0.021	0.00471802884
20	2997	0.021	0.004485429252
20	2998	0.021	0.004252829664
20	2999	0.021	0.004020230076
20	3000	0.021	0.003787630488
20	3001	0.021	0.0035550309
20	3002	0.021	0.003322431312
20	3003	0.021	0.003089831724
20	3004	0.021	0.002857232136
20	3005	0.021	0.002624632548
20	3112	0.022	0.001960527265
20	3113	0.022	0.00173536465
20	3114	0.022	0.001510202035
20	3115	0.022	0.00128503942
20	3116	0.022	0.001059876805
20	3117	0.022	0.00083471419
20	3118	0.022	0.000609551575
20	3119	0.022	0.00038438896
20	3120	0.022	0.000159226345
20	3121	0.022	0.00923766998
20	3122	0.022	0.009005627616
20	3123	0.022	0.008773585252
20	3124	0.022	0.008541542888
20	3125	0.022	0.008309500524
20	3126	0.022	0.00807745816
20	3127	0.022	0.007845415796
20	3128	0.022	0.007613373432
20	3129	0.022	0.007381331068
20	3130	0.022	0.007149288704
20	3131	0.022	0.00691724634
20	3132	0.022	0.006685203976
20	3133	0.022	0.006453161612
20	3134	0.022	0.006221119248
20	3135	0.022	0.005989076884
20	3136	0.022	0.00575703452
20	3137	0.022	0.00190812334
20	3138	0.022	0.001684880266
20	3139	0.022	0.001461637192
20	3140	0.022	0.001238394118
20	3141	0.022	0.001015151044
20	3260	0.023	0.001836279008
20	3261	0.023	0.001615823581
20	3262	0.023	0.001395368154
20	3263	0.023	0.001174912727
20	3264	0.023	0.0009544573
20	3265	0.023	0.000734001873
20	3266	0.023	0.000513546446
20	3267	0.023	0.000293091019
20	3268	0.023	7.2635592e-005
20	3269	0.023	0.001873272924
20	3270	0.023	0.001641111088
20	3271	0.023	0.001408949252
20	3272	0.023	0.001176787416
20	3273	0.023	0.00094462558
20	3274	0.023	0.000712463744
20	3275	0.023	0.000480301908
20	3276	0.023	0.000248140072
20	3277	0.023	1.5978236e-005
20	3278	0.023	0.01109423582
20	3279	0.023	0.01086959876
20	3280	0.023	0.0106449617
20	3281	0.023	0.01042032464
20	3282	0.023	0.01019568758
20	3283	0.023	0.00997105052
20	3284	0.023	0.00974641346
20	3285	0.023	0.0095217764
20	3286	0.023	0.00929713934
20	3287	0.023	0.00907250228
20	3288	0.023	0.00884786522
20	3289	0.023	0.00862322816
20	3398	0.024	0.00193406373
20	3399	0.024	0.001708901115
20	3400	0.024	0.0014837385
20	3401	0.024	0.001258575885
20	3402	0.024	0.00103341327
20	3403	0.024	0.000808250655
20	3404	0.024	0.00058308804
20	3405	0.024	0.000357925425
20	3406	0.024	0.00013276281
20	3407	0.024	0.00539203296
20	3408	0.024	0.005159433372
20	3409	0.024	0.004926833784
20	3410	0.024	0.004694234196
20	3411	0.024	0.004461634608
20	3412	0.024	0.00422903502
20	3413	0.024	0.003996435432
20	3414	0.024	0.003763835844
20	3415	0.024	0.003531236256
20	3416	0.024	0.003298636668
20	3417	0.024	0.00306603708
20	3418	0.024	0.002833437492
20	3419	0.024	0.002600837904
20	3420	0.024	0.002368238316
20	3421	0.024	0.002135638728
20	3422	0.024	0.00190303914
20	3423	0.024	0.001670439552
20	3424	0.024	0.001437839964
20	3425	0.024	0.011705679114
20	3426	0.024	0.011478006505
20	3427	0.024	0.011250333896
20	3540	0.025	0.00379190797
20	3541	0.025	0.003568664896
20	3542	0.025	0.003345421822
20	3543	0.025	0.003122178748
20	3544	0.025	0.002898935674
20	3545	0.025	0.0026756926
20	3546	0.025	0.002452449526
20	3547	0.025	0.002229206452
20	3548	0.025	0.002005963378
20	3549	0.025	0.001782720304
20	3550	0.025	0.00155947723
20	3551	0.025	0.001336234156
20	3552	0.025	0.001112991082
20	3553	0.025	0.000889748008
20	3554	0.025	0.000666504934
20	3555	0.025	0.00044326186
20	3556	0.025	0.000220018786
20	3557	0.025	0.001852180165
20	3558	0.025	0.001631724738
20	3559	0.025	0.001411269311
20	3560	0.025	0.001190813884
20	3561	0.025	0.000970358457
20	3562	0.025	0.00074990303
20	3563	0.025	0.000529447603
20	3564	0.025	0.000308992176
20	3565	0.025	8.8536749e-005
20	3566	0.025	0.019839000192
20	3567	0.025	0.019614608896
20	3568	0.025	0.0193902176
20	3569	0.025	0.019165826304
20	3682	0.026	0.0027838164
20	3683	0.026	0.002551654564
20	3684	0.026	0.002319492728
20	3685	0.026	0.002087330892
20	3686	0.026	0.001855169056
20	3687	0.026	0.00162300722
20	3688	0.026	0.001390845384
20	3689	0.026	0.001158683548
20	3690	0.026	0.000926521712
20	3691	0.026	0.000694359876
20	3692	0.026	0.00046219804
20	3693	0.026	0.000230036204
20	3694	0.026	0.001907600195
20	3695	0.026	0.00168243758
20	3696	0.026	0.001457274965
20	3697	0.026	0.00123211235
20	3698	0.026	0.001006949735
20	3699	0.026	0.00078178712
20	3700	0.026	0.000556624505
20	3701	0.026	0.00033146189
20	3702	0.026	0.000106299275
20	3703	0.026	0.009524992156
20	3704	0.026	0.009292949792
20	3705	0.026	0.009060907428
20	3706	0.026	0.008828865064
20	3707	0.026	0.0085968227
20	3708	0.026	0.008364780336
20	3709	0.026	0.008132737972
20	3710	0.026	0.007900695608
20	3711	0.026	0.007668653244
20	3826	0.027	0.0123985911
20	3827	0.027	0.01217395404
20	3828	0.027	0.01194931698
20	3829	0.027	0.01172467992
20	3830	0.027	0.01150004286
20	3831	0.027	0.0112754058
20	3832	0.027	0.01105076874
20	3833	0.027	0.01082613168
20	3834	0.027	0.01060149462
20	3835	0.027	0.01037685756
20	3836	0.027	0.0101522205
20	3837	0.027	0.00992758344
20	3838	0.027	0.00970294638
20	3839	0.027	0.00947830932
20	3840	0.027	0.00925367226
20	3841	0.027	0.0090290352
20	3842	0.027	0.00880439814
20	3843	0.027	0.00857976108
20	3844	0.027	0.00835512402
20	3845	0.027	0.00813048696
20	3846	0.027	0.001868081322
20	3847	0.027	0.001647625895
20	3848	0.027	0.001427170468
20	3849	0.027	0.001206715041
20	3850	0.027	0.000986259614
20	3851	0.027	0.000765804187
20	3852	0.027	0.00054534876
20	3853	0.027	0.000324893333
20	3854	0.027	0.000104437906
20	3855	0.027	0.004205240376
20	3968	0.028	0.002996775712
20	3969	0.028	0.002773532638
20	3970	0.028	0.002550289564
20	3971	0.028	0.00232704649
20	3972	0.028	0.002103803416
20	3973	0.028	0.001880560342
20	3974	0.028	0.001657317268
20	3975	0.028	0.001434074194
20	3976	0.028	0.00121083112
20	3977	0.028	0.000987588046
20	3978	0.028	0.000764344972
20	3979	0.028	0.000541101898
20	3980	0.028	0.000317858824
20	3981	0.028	9.461575e-005
20	3982	0.028	0.00188113666
20	3983	0.028	0.001655974045
20	3984	0.028	0.00143081143
20	3985	0.028	0.001205648815
20	3986	0.028	0.0009804862
20	3987	0.028	0.000755323585
20	3988	0.028	0.00053016097
20	3989	0.028	0.000304998355
20	3990	0.028	7.983574e-005
20	3991	0.028	0.001997874368
20	3992	0.028	0.001765712532
20	3993	0.028	0.001533550696
20	3994	0.028	0.00130138886
20	3995	0.028	0.001069227024
20	3996	0.028	0.000837065188
20	3997	0.028	0.000604903352
20	4108	0.029	0.001883982479
20	4109	0.029	0.001663527052
20	4110	0.029	0.001443071625
20	4111	0.029	0.001222616198
20	4112	0.029	0.001002160771
20	4113	0.029	0.000781705344
20	4114	0.029	0.000561249917
20	4115	0.029	0.00034079449
20	4116	0.029	0.000120339063
20	4117	0.029	0.016022661287
20	4118	0.029	0.015794988678
20	4119	0.029	0.015567316069
20	4120	0.029	0.01533964346
20	4121	0.029	0.015111970851
20	4122	0.029	0.014884298242
20	4123	0.029	0.014656625633
20	4124	0.029	0.014428953024
20	4125	0.029	0.014201280415
20	4126	0.029	0.013973607806
20	4127	0.029	0.013745935197
20	4128	0.029	0.013518262588
20	4129	0.029	0.013290589979
20	4130	0.029	0.01306291737
20	4131	0.029	0.012835244761
20	4132	0.029	0.026989986629
20	4133	0.029	0.02676665181
20	4134	0.029	0.026543316991
20	4135	0.029	0.026319982172
20	4136	0.029	0.026096647353
20	4137	0.029	0.025873312534
20	4254	0.03	0.001854673125
20	4255	0.03	0.00162951051
20	4256	0.03	0.001404347895
20	4257	0.03	0.00117918528
20	4258	0.03	0.000954022665
20	4259	0.03	0.00072886005
20	4260	0.03	0.000503697435
20	4261	0.03	0.00027853482
20	4262	0.03	5.3372205e-005
20	4263	0.03	0.006972640788
20	4264	0.03	0.0067400412
20	4265	0.03	0.006507441612
20	4266	0.03	0.006274842024
20	4267	0.03	0.006042242436
20	4268	0.03	0.005809642848
20	4269	0.03	0.00557704326
20	4270	0.03	0.005344443672
20	4271	0.03	0.005111844084
20	4272	0.03	0.004879244496
20	4273	0.03	0.004646644908
20	4274	0.03	0.00441404532
20	4275	0.03	0.004181445732
20	4276	0.03	0.003948846144
20	4277	0.03	0.003716246556
20	4278	0.03	0.003483646968
20	4279	0.03	0.00325104738
20	4280	0.03	0.003018447792
20	4281	0.03	0.002372741516
20	4282	0.03	0.00214057968
20	4283	0.03	0.001908417844
20	4395	0.031	0.002871372676
20	4396	0.031	0.002648129602
20	4397	0.031	0.002424886528
20	4398	0.031	0.002201643454
20	4399	0.031	0.00197840038
20	4400	0.031	0.001755157306
20	4401	0.031	0.001531914232
20	4402	0.031	0.001308671158
20	4403	0.031	0.001085428084
20	4404	0.031	0.00086218501
20	4405	0.031	0.000638941936
20	4406	0.031	0.000415698862
20	4407	0.031	0.000192455788
20	4408	0.031	0.0119058499
20	4409	0.031	0.01168121284
20	4410	0.031	0.01145657578
20	4411	0.031	0.01123193872
20	4412	0.031	0.01100730166
20	4413	0.031	0.0107826646
20	4414	0.031	0.01055802754
20	4415	0.031	0.01033339048
20	4416	0.031	0.01010875342
20	4417	0.031	0.00988411636
20	4418	0.031	0.0096594793
20	4419	0.031	0.00943484224
20	4420	0.031	0.00921020518
20	4421	0.031	0.00898556812
20	4422	0.031	0.00876093106
20	4423	0.031	0.008536294
20	4424	0.031	0.00831165694
20	4536	0.032	0.002899883636
20	4537	0.032	0.002679428209
20	4538	0.032	0.002458972782
20	4539	0.032	0.002238517355
20	4540	0.032	0.002018061928
20	4541	0.032	0.001797606501
20	4542	0.032	0.001577151074
20	4543	0.032	0.001356695647
20	4544	0.032	0.00113624022
20	4545	0.032	0.000915784793
20	4546	0.032	0.000695329366
20	4547	0.032	0.000474873939
20	4548	0.032	0.000254418512
20	4549	0.032	3.3963085e-005
20	4550	0.032	0.01343661088
20	4551	0.032	0.013204568516
20	4552	0.032	0.012972526152
20	4553	0.032	0.012740483788
20	4554	0.032	0.012508441424
20	4555	0.032	0.01227639906
20	4556	0.032	0.012044356696
20	4557	0.032	0.011812314332
20	4558	0.032	0.011580271968
20	4559	0.032	0.011348229604
20	4560	0.032	0.01111618724
20	4561	0.032	0.010884144876
20	4562	0.032	0.010652102512
20	4563	0.032	0.010420060148
20	4564	0.032	0.010188017784
20	4565	0.032	0.00995597542
20	4675	0.033	0.00282820959
20	4676	0.033	0.002603046975
20	4677	0.033	0.00237788436
20	4678	0.033	0.002152721745
20	4679	0.033	0.00192755913
20	4680	0.033	0.001702396515
20	4681	0.033	0.0014772339
20	4682	0.033	0.001252071285
20	4683	0.033	0.00102690867
20	4684	0.033	0.000801746055
20	4685	0.033	0.00057658344
20	4686	0.033	0.000351420825
20	4687	0.033	0.00012625821
20	4688	0.033	0.004676256008
20	4689	0.033	0.004444094172
20	4690	0.033	0.004211932336
20	4691	0.033	0.0039797705
20	4692	0.033	0.003747608664
20	4693	0.033	0.003515446828
20	4694	0.033	0.003283284992
20	4695	0.033	0.003051123156
20	4696	0.033	0.00281896132
20	4697	0.033	0.002586799484
20	4698	0.033	0.002354637648
20	4699	0.033	0.002122475812
20	4700	0.033	0.001890313976
20	4701	0.033	0.00165815214
20	4702	0.033	0.001425990304
20	4703	0.033	0.001193828468
20	4704	0.033	0.000961666632
20	4822	0.034	0.006785848204
20	4823	0.034	0.006553248616
20	4824	0.034	0.006320649028
20	4825	0.034	0.00608804944
20	4826	0.034	0.005855449852
20	4827	0.034	0.005622850264
20	4828	0.034	0.005390250676
20	4829	0.034	0.005157651088
20	4830	0.034	0.0049250515
20	4831	0.034	0.004692451912
20	4832	0.034	0.004459852324
20	4833	0.034	0.004227252736
20	4834	0.034	0.003994653148
20	4835	0.034	0.00376205356
20	4836	0.034	0.003529453972
20	4837	0.034	0.003296854384
20	4838	0.034	0.003064254796
20	4839	0.034	0.002831655208
20	4840	0.034	0.00259905562
20	4841	0.034	0.002366456032
20	4842	0.034	0.002133856444
20	4843	0.034	0.001901256856
20	4844	0.034	0.001668657268
20	4845	0.034	0.00143605768
20	4846	0.034	0.002969212714
20	4847	0.034	0.00274596964
20	4848	0.034	0.002522726566
20	4849	0.034	0.002299483492
20	4850	0.034	0.002076240418
20	4851	0.034	0.001852997344
20	4956	0.035	0.002813507658
20	4957	0.035	0.002593052231
20	4958	0.035	0.002372596804
20	4959	0.035	0.002152141377
20	4960	0.035	0.00193168595
20	4961	0.035	0.001711230523
20	4962	0.035	0.001490775096
20	4963	0.035	0.001270319669
20	4964	0.035	0.001049864242
20	4965	0.035	0.000829408815
20	4966	0.035	0.000608953388
20	4967	0.035	0.000388497961
20	4968	0.035	0.000168042534
20	4969	0.035	0.001901095595
20	4970	0.035	0.00167593298
20	4971	0.035	0.001450770365
20	4972	0.035	0.00122560775
20	4973	0.035	0.001000445135
20	4974	0.035	0.00077528252
20	4975	0.035	0.000550119905
20	4976	0.035	0.00032495729
20	4977	0.035	9.9794675e-005
20	4978	0.035	0.01208701988
20	4979	0.035	0.01186238282
20	4980	0.035	0.01163774576
20	4981	0.035	0.0114131087
20	4982	0.035	0.01118847164
20	4983	0.035	0.01096383458
20	4984	0.035	0.01073919752
20	4985	0.035	0.01051456046
20	5105	0.036	0.003729504796
20	5106	0.036	0.00349734296
20	5107	0.036	0.003265181124
20	5108	0.036	0.003033019288
20	5109	0.036	0.002800857452
20	5110	0.036	0.002568695616
20	5111	0.036	0.00233653378
20	5112	0.036	0.002104371944
20	5113	0.036	0.001872210108
20	5114	0.036	0.001640048272
20	5115	0.036	0.001407886436
20	5116	0.036	0.0011757246
20	5117	0.036	0.000943562764
20	5118	0.036	0.000711400928
20	5119	0.036	0.000479239092
20	5120	0.036	0.000247077256
20	5121	0.036	1.491542e-005
20	5122	0.036	0.029941435008
20	5123	0.036	0.029717043712
20	5124	0.036	0.029492652416
20	5125	0.036	0.02926826112
20	5126	0.036	0.029043869824
20	5127	0.036	0.028819478528
20	5128	0.036	0.028595087232
20	5129	0.036	0.028370695936
20	5130	0.036	0.02814630464
20	5131	0.036	0.027921913344
20	5132	0.036	0.027697522048
20	5133	0.036	0.027473130752
20	5134	0.036	0.027248739456
20	5242	0.037	0.020607572152
20	5243	0.037	0.020379899543
20	5244	0.037	0.020152226934
20	5245	0.037	0.019924554325
20	5246	0.037	0.019696881716
20	5247	0.037	0.019469209107
20	5248	0.037	0.019241536498
20	5249	0.037	0.019013863889
20	5250	0.037	0.01878619128
20	5251	0.037	0.018558518671
20	5252	0.037	0.018330846062
20	5253	0.037	0.018103173453
20	5254	0.037	0.017875500844
20	5255	0.037	0.017647828235
20	5256	0.037	0.017420155626
20	5257	0.037	0.017192483017
20	5258	0.037	0.016964810408
20	5259	0.037	0.016737137799
20	5260	0.037	0.01650946519
20	5261	0.037	0.016281792581
20	5262	0.037	0.016054119972
20	5263	0.037	0.015826447363
20	5264	0.037	0.015598774754
20	5265	0.037	0.015371102145
20	5266	0.037	0.00462975427
20	5267	0.037	0.004406511196
20	5268	0.037	0.004183268122
20	5269	0.037	0.003960025048
20	5270	0.037	0.003736781974
20	5271	0.037	0.0035135389
20	5386	0.038	0.00287463206
20	5387	0.038	0.002649469445
20	5388	0.038	0.00242430683
20	5389	0.038	0.002199144215
20	5390	0.038	0.0019739816
20	5391	0.038	0.001748818985
20	5392	0.038	0.00152365637
20	5393	0.038	0.001298493755
20	5394	0.038	0.00107333114
20	5395	0.038	0.000848168525
20	5396	0.038	0.00062300591
20	5397	0.038	0.000397843295
20	5398	0.038	0.00017268068
20	5399	0.038	0.002947587107
20	5400	0.038	0.00272713168
20	5401	0.038	0.002506676253
20	5402	0.038	0.002286220826
20	5403	0.038	0.002065765399
20	5404	0.038	0.001845309972
20	5405	0.038	0.001624854545
20	5406	0.038	0.001404399118
20	5407	0.038	0.001183943691
20	5408	0.038	0.000963488264
20	5409	0.038	0.000743032837
20	5410	0.038	0.00052257741
20	5411	0.038	0.000302121983
20	5412	0.038	8.1666556e-005
20	5413	0.038	0.005203458092
20	5414	0.038	0.004970858504
20	5415	0.038	0.004738258916
20	5525	0.039	0.016723933056
20	5526	0.039	0.016491890692
20	5527	0.039	0.016259848328
20	5528	0.039	0.016027805964
20	5529	0.039	0.0157957636
20	5530	0.039	0.015563721236
20	5531	0.039	0.015331678872
20	5532	0.039	0.015099636508
20	5533	0.039	0.014867594144
20	5534	0.039	0.01463555178
20	5535	0.039	0.014403509416
20	5536	0.039	0.014171467052
20	5537	0.039	0.013939424688
20	5538	0.039	0.013707382324
20	5539	0.039	0.01347533996
20	5540	0.039	0.013243297596
20	5541	0.039	0.013011255232
20	5542	0.039	0.012779212868
20	5543	0.039	0.012547170504
20	5544	0.039	0.01231512814
20	5545	0.039	0.012083085776
20	5546	0.039	0.011851043412
20	5547	0.039	0.011619001048
20	5548	0.039	0.011386958684
20	5549	0.039	0.01115491632
20	5550	0.039	0.010922873956
20	5551	0.039	0.010690831592
20	5552	0.039	0.010458789228
20	5553	0.039	0.002782753584
20	5554	0.039	0.002550591748
20	5670	0.04	0.0152899234
20	5671	0.04	0.01506528634
20	5672	0.04	0.01484064928
20	5673	0.04	0.01461601222
20	5674	0.04	0.01439137516
20	5675	0.04	0.0141667381
20	5676	0.04	0.01394210104
20	5677	0.04	0.01371746398
20	5678	0.04	0.01349282692
20	5679	0.04	0.01326818986
20	5680	0.04	0.0130435528
20	5681	0.04	0.01281891574
20	5682	0.04	0.01259427868
20	5683	0.04	0.01236964162
20	5684	0.04	0.01214500456
20	5685	0.04	0.0119203675
20	5686	0.04	0.01169573044
20	5687	0.04	0.01147109338
20	5688	0.04	0.01124645632
20	5689	0.04	0.01102181926
20	5690	0.04	0.0107971822
20	5691	0.04	0.01057254514
20	5692	0.04	0.01034790808
20	5693	0.04	0.01012327102
20	5694	0.04	0.00989863396
20	5695	0.04	0.006290295826
20	5696	0.04	0.006067052752
20	5697	0.04	0.005843809678
20	5698	0.04	0.005620566604
20	5699	0.04	0.00539732353
20	5810	0.041	0.002947518065
20	5811	0.041	0.00272235545
20	5812	0.041	0.002497192835
20	5813	0.041	0.00227203022
20	5814	0.041	0.002046867605
20	5815	0.041	0.00182170499
20	5816	0.041	0.001596542375
20	5817	0.041	0.00137137976
20	5818	0.041	0.001146217145
20	5819	0.041	0.00092105453
20	5820	0.041	0.000695891915
20	5821	0.041	0.0004707293
20	5822	0.041	0.000245566685
20	5823	0.041	2.040407e-005
20	5824	0.041	0.002861211129
20	5825	0.041	0.002640755702
20	5826	0.041	0.002420300275
20	5827	0.041	0.002199844848
20	5828	0.041	0.001979389421
20	5829	0.041	0.001758933994
20	5830	0.041	0.001538478567
20	5831	0.041	0.00131802314
20	5832	0.041	0.001097567713
20	5833	0.041	0.000877112286
20	5834	0.041	0.000656656859
20	5835	0.041	0.000436201432
20	5836	0.041	0.000215746005
20	5837	0.041	0.007505659328
20	5838	0.041	0.00727305974
20	5839	0.041	0.007040460152
20	5953	0.042	0.005318429912
20	5954	0.042	0.005086268076
20	5955	0.042	0.00485410624
20	5956	0.042	0.004621944404
20	5957	0.042	0.004389782568
20	5958	0.042	0.004157620732
20	5959	0.042	0.003925458896
20	5960	0.042	0.00369329706
20	5961	0.042	0.003461135224
20	5962	0.042	0.003228973388
20	5963	0.042	0.002996811552
20	5964	0.042	0.002764649716
20	5965	0.042	0.00253248788
20	5966	0.042	0.002300326044
20	5967	0.042	0.002068164208
20	5968	0.042	0.001836002372
20	5969	0.042	0.001603840536
20	5970	0.042	0.0013716787
20	5971	0.042	0.001139516864
20	5972	0.042	0.000907355028
20	5973	0.042	0.000675193192
20	5974	0.042	0.000443031356
20	5975	0.042	0.00021086952
20	5976	0.042	0.020143429536
20	5977	0.042	0.019915756927
20	5978	0.042	0.019688084318
20	5979	0.042	0.019460411709
20	5980	0.042	0.0192327391
20	5981	0.042	0.019005066491
20	5982	0.042	0.018777393882
20	6093	0.043	0.008174080456
20	6094	0.043	0.007950837382
20	6095	0.043	0.007727594308
20	6096	0.043	0.007504351234
20	6097	0.043	0.00728110816
20	6098	0.043	0.007057865086
20	6099	0.043	0.006834622012
20	6100	0.043	0.006611378938
20	6101	0.043	0.006388135864
20	6102	0.043	0.00616489279
20	6103	0.043	0.005941649716
20	6104	0.043	0.005718406642
20	6105	0.043	0.005495163568
20	6106	0.043	0.005271920494
20	6107	0.043	0.00504867742
20	6108	0.043	0.004825434346
20	6109	0.043	0.004602191272
20	6110	0.043	0.004378948198
20	6111	0.043	0.004155705124
20	6112	0.043	0.00393246205
20	6113	0.043	0.003709218976
20	6114	0.043	0.001795241455
20	6115	0.043	0.00157007884
20	6116	0.043	0.001344916225
20	6117	0.043	0.00111975361
20	6118	0.043	0.000894590995
20	6119	0.043	0.00066942838
20	6120	0.043	0.000444265765
20	6121	0.043	0.00021910315
20	6122	0.043	0.001995290578
20	6238	0.044	0.0136739969
20	6239	0.044	0.01344935984
20	6240	0.044	0.01322472278
20	6241	0.044	0.01300008572
20	6242	0.044	0.01277544866
20	6243	0.044	0.0125508116
20	6244	0.044	0.01232617454
20	6245	0.044	0.01210153748
20	6246	0.044	0.01187690042
20	6247	0.044	0.01165226336
20	6248	0.044	0.0114276263
20	6249	0.044	0.01120298924
20	6250	0.044	0.01097835218
20	6251	0.044	0.01075371512
20	6252	0.044	0.01052907806
20	6253	0.044	0.010304441
20	6254	0.044	0.01007980394
20	6255	0.044	0.00985516688
20	6256	0.044	0.00963052982
20	6257	0.044	0.00940589276
20	6258	0.044	0.015226746864
20	6259	0.044	0.0149947045
20	6260	0.044	0.014762662136
20	6261	0.044	0.014530619772
20	6262	0.044	0.014298577408
20	6263	0.044	0.014066535044
20	6264	0.044	0.01383449268
20	6265	0.044	0.013602450316
20	6266	0.044	0.013370407952
20	6267	0.044	0.013138365588
20	6375	0.045	0.002978707684
20	6376	0.045	0.002746545848
20	6377	0.045	0.002514384012
20	6378	0.045	0.002282222176
20	6379	0.045	0.00205006034
20	6380	0.045	0.001817898504
20	6381	0.045	0.001585736668
20	6382	0.045	0.001353574832
20	6383	0.045	0.001121412996
20	6384	0.045	0.00088925116
20	6385	0.045	0.000657089324
20	6386	0.045	0.000424927488
20	6387	0.045	0.000192765652
20	6388	0.045	0.010807860564
20	6389	0.045	0.010575260976
20	6390	0.045	0.010342661388
20	6391	0.045	0.0101100618
20	6392	0.045	0.009877462212
20	6393	0.045	0.009644862624
20	6394	0.045	0.009412263036
20	6395	0.045	0.009179663448
20	6396	0.045	0.00894706386
20	6397	0.045	0.008714464272
20	6398	0.045	0.008481864684
20	6399	0.045	0.008249265096
20	6400	0.045	0.008016665508
20	6401	0.045	0.00778406592
20	6402	0.045	0.007551466332
20	6403	0.045	0.007318866744
20	6404	0.045	0.007086267156
20	6518	0.046	0.002993940535
20	6519	0.046	0.00276877792
20	6520	0.046	0.002543615305
20	6521	0.046	0.00231845269
20	6522	0.046	0.002093290075
20	6523	0.046	0.00186812746
20	6524	0.046	0.001642964845
20	6525	0.046	0.00141780223
20	6526	0.046	0.001192639615
20	6527	0.046	0.000967477
20	6528	0.046	0.000742314385
20	6529	0.046	0.00051715177
20	6530	0.046	0.000291989155
20	6531	0.046	6.682654e-005
20	6532	0.046	0.004774835151
20	6533	0.046	0.004554379724
20	6534	0.046	0.004333924297
20	6535	0.046	0.00411346887
20	6536	0.046	0.003893013443
20	6537	0.046	0.003672558016
20	6538	0.046	0.003452102589
20	6539	0.046	0.003231647162
20	6540	0.046	0.003011191735
20	6541	0.046	0.002790736308
20	6542	0.046	0.002570280881
20	6543	0.046	0.002349825454
20	6544	0.046	0.002129370027
20	6545	0.046	0.0019089146
20	6546	0.046	0.001688459173
20	6547	0.046	0.001468003746
20	6661	0.047	0.007485975902
20	6662	0.047	0.007262732828
20	6663	0.047	0.007039489754
20	6664	0.047	0.00681624668
20	6665	0.047	0.006593003606
20	6666	0.047	0.006369760532
20	6667	0.047	0.006146517458
20	6668	0.047	0.005923274384
20	6669	0.047	0.00570003131
20	6670	0.047	0.005476788236
20	6671	0.047	0.005253545162
20	6672	0.047	0.005030302088
20	6673	0.047	0.004807059014
20	6674	0.047	0.00458381594
20	6675	0.047	0.004360572866
20	6676	0.047	0.004137329792
20	6677	0.047	0.003914086718
20	6678	0.047	0.003690843644
20	6679	0.047	0.00346760057
20	6680	0.047	0.003244357496
20	6681	0.047	0.003021114422
20	6682	0.047	0.002797871348
20	6683	0.047	0.002574628274
20	6684	0.047	0.0023513852
20	6685	0.047	0.002128142126
20	6686	0.047	0.001904899052
20	6687	0.047	0.001681655978
20	6688	0.047	0.001458412904
20	6689	0.047	0.03802434816
20	6690	0.047	0.037799956864
20	6799	0.048	0.002960603816
20	6800	0.048	0.00272844198
20	6801	0.048	0.002496280144
20	6802	0.048	0.002264118308
20	6803	0.048	0.002031956472
20	6804	0.048	0.001799794636
20	6805	0.048	0.0015676328
20	6806	0.048	0.001335470964
20	6807	0.048	0.001103309128
20	6808	0.048	0.000871147292
20	6809	0.048	0.000638985456
20	6810	0.048	0.00040682362
20	6811	0.048	0.000174661784
20	6812	0.048	0.001841663925
20	6813	0.048	0.00161650131
20	6814	0.048	0.001391338695
20	6815	0.048	0.00116617608
20	6816	0.048	0.000941013465
20	6817	0.048	0.00071585085
20	6818	0.048	0.000490688235
20	6819	0.048	0.00026552562
20	6820	0.048	4.0363005e-005
20	6821	0.048	0.0131812557
20	6822	0.048	0.01295661864
20	6823	0.048	0.01273198158
20	6824	0.048	0.01250734452
20	6825	0.048	0.01228270746
20	6826	0.048	0.0120580704
20	6827	0.048	0.01183343334
20	6828	0.048	0.01160879628
20	6946	0.049	0.004247548319
20	6947	0.049	0.004027092892
20	6948	0.049	0.003806637465
20	6949	0.049	0.003586182038
20	6950	0.049	0.003365726611
20	6951	0.049	0.003145271184
20	6952	0.049	0.002924815757
20	6953	0.049	0.00270436033
20	6954	0.049	0.002483904903
20	6955	0.049	0.002263449476
20	6956	0.049	0.002042994049
20	6957	0.049	0.001822538622
20	6958	0.049	0.001602083195
20	6959	0.049	0.001381627768
20	6960	0.049	0.001161172341
20	6961	0.049	0.000940716914
20	6962	0.049	0.000720261487
20	6963	0.049	0.00049980606
20	6964	0.049	0.000279350633
20	6965	0.049	5.8895206e-005
20	6966	0.049	0.010853667568
20	6967	0.049	0.01062106798
20	6968	0.049	0.010388468392
20	6969	0.049	0.010155868804
20	6970	0.049	0.009923269216
20	6971	0.049	0.009690669628
20	6972	0.049	0.00945807004
20	6973	0.049	0.009225470452
20	6974	0.049	0.008992870864
20	6975	0.049	0.008760271276
20	7081	0.05	0.018906323224
20	7082	0.05	0.01867428086
20	7083	0.05	0.018442238496
20	7084	0.05	0.018210196132
20	7085	0.05	0.017978153768
20	7086	0.05	0.017746111404
20	7087	0.05	0.01751406904
20	7088	0.05	0.017282026676
20	7089	0.05	0.017049984312
20	7090	0.05	0.016817941948
20	7091	0.05	0.016585899584
20	7092	0.05	0.01635385722
20	7093	0.05	0.016121814856
20	7094	0.05	0.015889772492
20	7095	0.05	0.015657730128
20	7096	0.05	0.015425687764
20	7097	0.05	0.0151936454
20	7098	0.05	0.014961603036
20	7099	0.05	0.014729560672
20	7100	0.05	0.014497518308
20	7101	0.05	0.014265475944
20	7102	0.05	0.01403343358
20	7103	0.05	0.013801391216
20	7104	0.05	0.013569348852
20	7105	0.05	0.026549721273
20	7106	0.05	0.026322048664
20	7107	0.05	0.026094376055
20	7108	0.05	0.025866703446
20	7109	0.05	0.025639030837
20	7110	0.05	0.025411358228
20	7228	0.051	0.00281520039
20	7229	0.051	0.002590037775
20	7230	0.051	0.00236487516
20	7231	0.051	0.002139712545
20	7232	0.051	0.00191454993
20	7233	0.051	0.001689387315
20	7234	0.051	0.0014642247
20	7235	0.051	0.001239062085
20	7236	0.051	0.00101389947
20	7237	0.051	0.000788736855
20	7238	0.051	0.00056357424
20	7239	0.051	0.000338411625
20	7240	0.051	0.00011324901
20	7241	0.051	0.00523516983
20	7242	0.051	0.005011926756
20	7243	0.051	0.004788683682
20	7244	0.051	0.004565440608
20	7245	0.051	0.004342197534
20	7246	0.051	0.00411895446
20	7247	0.051	0.003895711386
20	7248	0.051	0.003672468312
20	7249	0.051	0.003449225238
20	7250	0.051	0.003225982164
20	7251	0.051	0.00300273909
20	7252	0.051	0.002779496016
20	7253	0.051	0.002556252942
20	7254	0.051	0.002333009868
20	7255	0.051	0.002109766794
20	7256	0.051	0.00188652372
20	7257	0.051	0.001663280646
20	7363	0.052	0.003942499948
20	7364	0.052	0.003710338112
20	7365	0.052	0.003478176276
20	7366	0.052	0.00324601444
20	7367	0.052	0.003013852604
20	7368	0.052	0.002781690768
20	7369	0.052	0.002549528932
20	7370	0.052	0.002317367096
20	7371	0.052	0.00208520526
20	7372	0.052	0.001853043424
20	7373	0.052	0.001620881588
20	7374	0.052	0.001388719752
20	7375	0.052	0.001156557916
20	7376	0.052	0.00092439608
20	7377	0.052	0.000692234244
20	7378	0.052	0.000460072408
20	7379	0.052	0.000227910572
20	7380	0.052	0.002838439779
20	7381	0.052	0.002617984352
20	7382	0.052	0.002397528925
20	7383	0.052	0.002177073498
20	7384	0.052	0.001956618071
20	7385	0.052	0.001736162644
20	7386	0.052	0.001515707217
20	7387	0.052	0.00129525179
20	7388	0.052	0.001074796363
20	7389	0.052	0.000854340936
20	7390	0.052	0.000633885509
20	7391	0.052	0.000413430082
20	7392	0.052	0.000192974655
20	7508	0.053	0.01638415922
20	7509	0.053	0.01615952216
20	7510	0.053	0.0159348851
20	7511	0.053	0.01571024804
20	7512	0.053	0.01548561098
20	7513	0.053	0.01526097392
20	7514	0.053	0.01503633686
20	7515	0.053	0.0148116998
20	7516	0.053	0.01458706274
20	7517	0.053	0.01436242568
20	7518	0.053	0.01413778862
20	7519	0.053	0.01391315156
20	7520	0.053	0.0136885145
20	7521	0.053	0.01346387744
20	7522	0.053	0.01323924038
20	7523	0.053	0.01301460332
20	7524	0.053	0.01278996626
20	7525	0.053	0.0125653292
20	7526	0.053	0.01234069214
20	7527	0.053	0.01211605508
20	7528	0.053	0.01189141802
20	7529	0.053	0.01166678096
20	7530	0.053	0.0114421439
20	7531	0.053	0.01121750684
20	7532	0.053	0.01099286978
20	7533	0.053	0.012527671688
20	7534	0.053	0.0122950721
20	7535	0.053	0.012062472512
20	7536	0.053	0.011829872924
20	7537	0.053	0.011597273336
20	7647	0.054	0.002888086395
20	7648	0.054	0.00266292378
20	7649	0.054	0.002437761165
20	7650	0.054	0.00221259855
20	7651	0.054	0.001987435935
20	7652	0.054	0.00176227332
20	7653	0.054	0.001537110705
20	7654	0.054	0.00131194809
20	7655	0.054	0.001086785475
20	7656	0.054	0.00086162286
20	7657	0.054	0.000636460245
20	7658	0.054	0.00041129763
20	7659	0.054	0.000186135015
20	7660	0.054	0.050649977715
20	7661	0.054	0.050426642896
20	7662	0.054	0.050203308077
20	7663	0.054	0.049979973258
20	7664	0.054	0.049756638439
20	7665	0.054	0.04953330362
20	7666	0.054	0.049309968801
20	7667	0.054	0.049086633982
20	7668	0.054	0.048863299163
20	7669	0.054	0.048639964344
20	7670	0.054	0.048416629525
20	7671	0.054	0.048193294706
20	7672	0.054	0.047969959887
20	7673	0.054	0.047746625068
20	7674	0.054	0.047523290249
20	7675	0.054	0.04729995543
20	7676	0.054	0.047076620611
20	7792	0.055	0.005440037572
20	7793	0.055	0.005216794498
20	7794	0.055	0.004993551424
20	7795	0.055	0.00477030835
20	7796	0.055	0.004547065276
20	7797	0.055	0.004323822202
20	7798	0.055	0.004100579128
20	7799	0.055	0.003877336054
20	7800	0.055	0.00365409298
20	7801	0.055	0.003430849906
20	7802	0.055	0.003207606832
20	7803	0.055	0.002984363758
20	7804	0.055	0.002761120684
20	7805	0.055	0.00253787761
20	7806	0.055	0.002314634536
20	7807	0.055	0.002091391462
20	7808	0.055	0.001868148388
20	7809	0.055	0.001644905314
20	7810	0.055	0.00142166224
20	7811	0.055	0.001198419166
20	7812	0.055	0.000975176092
20	7813	0.055	0.000751933018
20	7814	0.055	0.000528689944
20	7815	0.055	0.00030544687
20	7816	0.055	8.2203796e-005
20	7817	0.055	0.002972519228
20	7818	0.055	0.002752063801
20	7819	0.055	0.002531608374
20	7820	0.055	0.002311152947
20	7821	0.055	0.00209069752
20	7931	0.056	0.003995748736
20	7932	0.056	0.0037635869
20	7933	0.056	0.003531425064
20	7934	0.056	0.003299263228
20	7935	0.056	0.003067101392
20	7936	0.056	0.002834939556
20	7937	0.056	0.00260277772
20	7938	0.056	0.002370615884
20	7939	0.056	0.002138454048
20	7940	0.056	0.001906292212
20	7941	0.056	0.001674130376
20	7942	0.056	0.00144196854
20	7943	0.056	0.001209806704
20	7944	0.056	0.000977644868
20	7945	0.056	0.000745483032
20	7946	0.056	0.000513321196
20	7947	0.056	0.00028115936
20	7948	0.056	4.8997524e-005
20	7949	0.056	0.019337306488
20	7950	0.056	0.019105264124
20	7951	0.056	0.01887322176
20	7952	0.056	0.018641179396
20	7953	0.056	0.018409137032
20	7954	0.056	0.018177094668
20	7955	0.056	0.017945052304
20	7956	0.056	0.01771300994
20	7957	0.056	0.017480967576
20	7958	0.056	0.017248925212
20	7959	0.056	0.017016882848
20	7960	0.056	0.016784840484
20	8076	0.057	0.0029609724
20	8077	0.057	0.002735809785
20	8078	0.057	0.00251064717
20	8079	0.057	0.002285484555
20	8080	0.057	0.00206032194
20	8081	0.057	0.001835159325
20	8082	0.057	0.00160999671
20	8083	0.057	0.001384834095
20	8084	0.057	0.00115967148
20	8085	0.057	0.000934508865
20	8086	0.057	0.00070934625
20	8087	0.057	0.000484183635
20	8088	0.057	0.00025902102
20	8089	0.057	3.3858405e-005
20	8090	0.057	0.015364673748
20	8091	0.057	0.01513207416
20	8092	0.057	0.014899474572
20	8093	0.057	0.014666874984
20	8094	0.057	0.014434275396
20	8095	0.057	0.014201675808
20	8096	0.057	0.01396907622
20	8097	0.057	0.013736476632
20	8098	0.057	0.013503877044
20	8099	0.057	0.013271277456
20	8100	0.057	0.013038677868
20	8101	0.057	0.01280607828
20	8102	0.057	0.012573478692
20	8103	0.057	0.012340879104
20	8104	0.057	0.012108279516
20	8105	0.057	0.011875679928
20	8213	0.058	0.004870242093
20	8214	0.058	0.004649786666
20	8215	0.058	0.004429331239
20	8216	0.058	0.004208875812
20	8217	0.058	0.003988420385
20	8218	0.058	0.003767964958
20	8219	0.058	0.003547509531
20	8220	0.058	0.003327054104
20	8221	0.058	0.003106598677
20	8222	0.058	0.00288614325
20	8223	0.058	0.002665687823
20	8224	0.058	0.002445232396
20	8225	0.058	0.002224776969
20	8226	0.058	0.002004321542
20	8227	0.058	0.001783866115
20	8228	0.058	0.001563410688
20	8229	0.058	0.001342955261
20	8230	0.058	0.001122499834
20	8231	0.058	0.000902044407
20	8232	0.058	0.00068158898
20	8233	0.058	0.000461133553
20	8234	0.058	0.000240678126
20	8235	0.058	2.0222699e-005
20	8236	0.058	0.01576823272
20	8237	0.058	0.01554359566
20	8238	0.058	0.0153189586
20	8239	0.058	0.01509432154
20	8240	0.058	0.01486968448
20	8241	0.058	0.01464504742
20	8242	0.058	0.01442041036
20	8358	0.059	0.003858960722
20	8359	0.059	0.003635717648
20	8360	0.059	0.003412474574
20	8361	0.059	0.0031892315
20	8362	0.059	0.002965988426
20	8363	0.059	0.002742745352
20	8364	0.059	0.002519502278
20	8365	0.059	0.002296259204
20	8366	0.059	0.00207301613
20	8367	0.059	0.001849773056
20	8368	0.059	0.001626529982
20	8369	0.059	0.001403286908
20	8370	0.059	0.001180043834
20	8371	0.059	0.00095680076
20	8372	0.059	0.000733557686
20	8373	0.059	0.000510314612
20	8374	0.059	0.000287071538
20	8375	0.059	6.3828464e-005
20	8376	0.059	0.034183685619
20	8377	0.059	0.03395601301
20	8378	0.059	0.033728340401
20	8379	0.059	0.033500667792
20	8380	0.059	0.033272995183
20	8381	0.059	0.033045322574
20	8382	0.059	0.032817649965
20	8383	0.059	0.032589977356
20	8384	0.059	0.032362304747
20	8385	0.059	0.032134632138
20	8386	0.059	0.031906959529
20	8387	0.059	0.03167928692
20	8497	0.06	0.003816835688
20	8498	0.06	0.003584673852
20	8499	0.06	0.003352512016
20	8500	0.06	0.00312035018
20	8501	0.06	0.002888188344
20	8502	0.06	0.002656026508
20	8503	0.06	0.002423864672
20	8504	0.06	0.002191702836
20	8505	0.06	0.001959541
20	8506	0.06	0.001727379164
20	8507	0.06	0.001495217328
20	8508	0.06	0.001263055492
20	8509	0.06	0.001030893656
20	8510	0.06	0.00079873182
20	8511	0.06	0.000566569984
20	8512	0.06	0.000334408148
20	8513	0.06	0.000102246312
20	8514	0.06	0.00280869579
20	8515	0.06	0.002583533175
20	8516	0.06	0.00235837056
20	8517	0.06	0.002133207945
20	8518	0.06	0.00190804533
20	8519	0.06	0.001682882715
20	8520	0.06	0.0014577201
20	8521	0.06	0.001232557485
20	8522	0.06	0.00100739487
20	8523	0.06	0.000782232255
20	8524	0.06	0.00055706964
20	8525	0.06	0.000331907025
20	8526	0.06	0.00010674441
20	8636	0.061	0.051575565568
20	8637	0.061	0.051351174272
20	8638	0.061	0.051126782976
20	8639	0.061	0.05090239168
20	8640	0.061	0.050678000384
20	8641	0.061	0.050453609088
20	8642	0.061	0.050229217792
20	8643	0.061	0.050004826496
20	8644	0.061	0.0497804352
20	8645	0.061	0.049556043904
20	8646	0.061	0.049331652608
20	8647	0.061	0.049107261312
20	8648	0.061	0.048882870016
20	8649	0.061	0.04865847872
20	8650	0.061	0.048434087424
20	8651	0.061	0.048209696128
20	8652	0.061	0.047985304832
20	8653	0.061	0.047760913536
20	8654	0.061	0.04753652224
20	8655	0.061	0.047312130944
20	8656	0.061	0.047087739648
20	8657	0.061	0.046863348352
20	8658	0.061	0.046638957056
20	8659	0.061	0.04641456576
20	8660	0.061	0.046190174464
20	8661	0.061	0.045965783168
20	8662	0.061	0.045741391872
20	8663	0.061	0.045517000576
20	8664	0.061	0.002799767272
20	8665	0.061	0.002579311845
20	8782	0.062	0.01664308034
20	8783	0.062	0.016410480752
20	8784	0.062	0.016177881164
20	8785	0.062	0.015945281576
20	8786	0.062	0.015712681988
20	8787	0.062	0.0154800824
20	8788	0.062	0.015247482812
20	8789	0.062	0.015014883224
20	8790	0.062	0.014782283636
20	8791	0.062	0.014549684048
20	8792	0.062	0.01431708446
20	8793	0.062	0.014084484872
20	8794	0.062	0.013851885284
20	8795	0.062	0.013619285696
20	8796	0.062	0.013386686108
20	8797	0.062	0.01315408652
20	8798	0.062	0.012921486932
20	8799	0.062	0.012688887344
20	8800	0.062	0.012456287756
20	8801	0.062	0.012223688168
20	8802	0.062	0.01199108858
20	8803	0.062	0.011758488992
20	8804	0.062	0.011525889404
20	8805	0.062	0.011293289816
20	8806	0.062	0.011060690228
20	8807	0.062	0.01082809064
20	8808	0.062	0.010595491052
20	8809	0.062	0.010362891464
20	8810	0.062	0.010130291876
20	8811	0.062	0.009897692288
20	8919	0.063	0.002881581795
20	8920	0.063	0.00265641918
20	8921	0.063	0.002431256565
20	8922	0.063	0.00220609395
20	8923	0.063	0.001980931335
20	8924	0.063	0.00175576872
20	8925	0.063	0.001530606105
20	8926	0.063	0.00130544349
20	8927	0.063	0.001080280875
20	8928	0.063	0.00085511826
20	8929	0.063	0.000629955645
20	8930	0.063	0.00040479303
20	8931	0.063	0.000179630415
20	8932	0.063	0.00384058539
20	8933	0.063	0.003617342316
20	8934	0.063	0.003394099242
20	8935	0.063	0.003170856168
20	8936	0.063	0.002947613094
20	8937	0.063	0.00272437002
20	8938	0.063	0.002501126946
20	8939	0.063	0.002277883872
20	8940	0.063	0.002054640798
20	8941	0.063	0.001831397724
20	8942	0.063	0.00160815465
20	8943	0.063	0.001384911576
20	8944	0.063	0.001161668502
20	8945	0.063	0.000938425428
20	8946	0.063	0.000715182354
20	8947	0.063	0.00049193928
20	8948	0.063	0.000268696206
20	9062	0.064	0.003870084476
20	9063	0.064	0.00363792264
20	9064	0.064	0.003405760804
20	9065	0.064	0.003173598968
20	9066	0.064	0.002941437132
20	9067	0.064	0.002709275296
20	9068	0.064	0.00247711346
20	9069	0.064	0.002244951624
20	9070	0.064	0.002012789788
20	9071	0.064	0.001780627952
20	9072	0.064	0.001548466116
20	9073	0.064	0.00131630428
20	9074	0.064	0.001084142444
20	9075	0.064	0.000851980608
20	9076	0.064	0.000619818772
20	9077	0.064	0.000387656936
20	9078	0.064	0.0001554951
20	9079	0.064	0.02455279812
20	9080	0.064	0.024320755756
20	9081	0.064	0.024088713392
20	9082	0.064	0.023856671028
20	9083	0.064	0.023624628664
20	9084	0.064	0.0233925863
20	9085	0.064	0.023160543936
20	9086	0.064	0.022928501572
20	9087	0.064	0.022696459208
20	9088	0.064	0.022464416844
20	9089	0.064	0.02223237448
20	9090	0.064	0.022000332116
20	9091	0.064	0.021768289752
20	9203	0.065	0.006358856418
20	9204	0.065	0.006138400991
20	9205	0.065	0.005917945564
20	9206	0.065	0.005697490137
20	9207	0.065	0.00547703471
20	9208	0.065	0.005256579283
20	9209	0.065	0.005036123856
20	9210	0.065	0.004815668429
20	9211	0.065	0.004595213002
20	9212	0.065	0.004374757575
20	9213	0.065	0.004154302148
20	9214	0.065	0.003933846721
20	9215	0.065	0.003713391294
20	9216	0.065	0.003492935867
20	9217	0.065	0.00327248044
20	9218	0.065	0.003052025013
20	9219	0.065	0.002831569586
20	9220	0.065	0.002611114159
20	9221	0.065	0.002390658732
20	9222	0.065	0.002170203305
20	9223	0.065	0.001949747878
20	9224	0.065	0.001729292451
20	9225	0.065	0.001508837024
20	9226	0.065	0.001288381597
20	9227	0.065	0.00106792617
20	9228	0.065	0.000847470743
20	9229	0.065	0.000627015316
20	9230	0.065	0.000406559889
20	9231	0.065	0.000186104462
20	9232	0.065	0.0211957733
20	9344	0.066	0.0029544678
20	9345	0.066	0.002729305185
20	9346	0.066	0.00250414257
20	9347	0.066	0.002278979955
20	9348	0.066	0.00205381734
20	9349	0.066	0.001828654725
20	9350	0.066	0.00160349211
20	9351	0.066	0.001378329495
20	9352	0.066	0.00115316688
20	9353	0.066	0.000928004265
20	9354	0.066	0.00070284165
20	9355	0.066	0.000477679035
20	9356	0.066	0.00025251642
20	9357	0.066	2.7353805e-005
20	9358	0.066	0.0136650927
20	9359	0.066	0.013432493112
20	9360	0.066	0.013199893524
20	9361	0.066	0.012967293936
20	9362	0.066	0.012734694348
20	9363	0.066	0.01250209476
20	9364	0.066	0.012269495172
20	9365	0.066	0.012036895584
20	9366	0.066	0.011804295996
20	9367	0.066	0.011571696408
20	9368	0.066	0.01133909682
20	9369	0.066	0.011106497232
20	9370	0.066	0.010873897644
20	9371	0.066	0.010641298056
20	9372	0.066	0.010408698468
20	9373	0.066	0.01017609888
20	9485	0.067	0.004045453132
20	9486	0.067	0.003822210058
20	9487	0.067	0.003598966984
20	9488	0.067	0.00337572391
20	9489	0.067	0.003152480836
20	9490	0.067	0.002929237762
20	9491	0.067	0.002705994688
20	9492	0.067	0.002482751614
20	9493	0.067	0.00225950854
20	9494	0.067	0.002036265466
20	9495	0.067	0.001813022392
20	9496	0.067	0.001589779318
20	9497	0.067	0.001366536244
20	9498	0.067	0.00114329317
20	9499	0.067	0.000920050096
20	9500	0.067	0.000696807022
20	9501	0.067	0.000473563948
20	9502	0.067	0.000250320874
20	9503	0.067	2.70778e-005
20	9504	0.067	0.002923333264
20	9505	0.067	0.002691171428
20	9506	0.067	0.002459009592
20	9507	0.067	0.002226847756
20	9508	0.067	0.00199468592
20	9509	0.067	0.001762524084
20	9510	0.067	0.001530362248
20	9511	0.067	0.001298200412
20	9512	0.067	0.001066038576
20	9513	0.067	0.00083387674
20	9514	0.067	0.000601714904
20	9628	0.068	0.002965649035
20	9629	0.068	0.002745193608
20	9630	0.068	0.002524738181
20	9631	0.068	0.002304282754
20	9632	0.068	0.002083827327
20	9633	0.068	0.0018633719
20	9634	0.068	0.001642916473
20	9635	0.068	0.001422461046
20	9636	0.068	0.001202005619
20	9637	0.068	0.000981550192
20	9638	0.068	0.000761094765
20	9639	0.068	0.000540639338
20	9640	0.068	0.000320183911
20	9641	0.068	9.9728484e-005
20	9642	0.068	0.040451614311
20	9643	0.068	0.040223941702
20	9644	0.068	0.039996269093
20	9645	0.068	0.039768596484
20	9646	0.068	0.039540923875
20	9647	0.068	0.039313251266
20	9648	0.068	0.039085578657
20	9649	0.068	0.038857906048
20	9650	0.068	0.038630233439
20	9651	0.068	0.03840256083
20	9652	0.068	0.038174888221
20	9653	0.068	0.037947215612
20	9654	0.068	0.037719543003
20	9655	0.068	0.037491870394
20	9656	0.068	0.037264197785
20	9657	0.068	0.037036525176
20	9769	0.069	0.00280219119
20	9770	0.069	0.002577028575
20	9771	0.069	0.00235186596
20	9772	0.069	0.002126703345
20	9773	0.069	0.00190154073
20	9774	0.069	0.001676378115
20	9775	0.069	0.0014512155
20	9776	0.069	0.001226052885
20	9777	0.069	0.00100089027
20	9778	0.069	0.000775727655
20	9779	0.069	0.00055056504
20	9780	0.069	0.000325402425
20	9781	0.069	0.00010023981
20	9782	0.069	0.02497113624
20	9783	0.069	0.02474649918
20	9784	0.069	0.02452186212
20	9785	0.069	0.02429722506
20	9786	0.069	0.024072588
20	9787	0.069	0.02384795094
20	9788	0.069	0.02362331388
20	9789	0.069	0.02339867682
20	9790	0.069	0.02317403976
20	9791	0.069	0.0229494027
20	9792	0.069	0.02272476564
20	9793	0.069	0.02250012858
20	9794	0.069	0.02227549152
20	9795	0.069	0.02205085446
20	9796	0.069	0.0218262174
20	9797	0.069	0.02160158034
20	9798	0.069	0.02137694328
20	9906	0.07	0.003369553068
20	9907	0.07	0.003137391232
20	9908	0.07	0.002905229396
20	9909	0.07	0.00267306756
20	9910	0.07	0.002440905724
20	9911	0.07	0.002208743888
20	9912	0.07	0.001976582052
20	9913	0.07	0.001744420216
20	9914	0.07	0.00151225838
20	9915	0.07	0.001280096544
20	9916	0.07	0.001047934708
20	9917	0.07	0.000815772872
20	9918	0.07	0.000583611036
20	9919	0.07	0.0003514492
20	9920	0.07	0.000119287364
20	9921	0.07	0.013943499292
20	9922	0.07	0.013710899704
20	9923	0.07	0.013478300116
20	9924	0.07	0.013245700528
20	9925	0.07	0.01301310094
20	9926	0.07	0.012780501352
20	9927	0.07	0.012547901764
20	9928	0.07	0.012315302176
20	9929	0.07	0.012082702588
20	9930	0.07	0.011850103
20	9931	0.07	0.011617503412
20	9932	0.07	0.011384903824
20	9933	0.07	0.011152304236
20	9934	0.07	0.010919704648
20	9935	0.07	0.01068710506
21	250	0.002	7
21	1121	0.008	22
21	2260	0.016	49
21	3539	0.025	85
21	5104	0.036	121
21	6660	0.047	168
21	8634	0.061	202
22	2118	0.015	59
22	4107	0.029	115
22	7646	0.054	210

