version 2
run _10UsersSetupPF-0-20201129-20:22:58-12828
attr configname _10UsersSetupPF
attr datetime 20201129-20:22:58
attr experiment _10UsersSetupPF
attr inifile omnetpp.ini
attr iterationvars ""
attr iterationvarsf ""
attr measurement ""
attr network Network
attr processid 12828
attr repetition 0
attr replication #0
attr resultdir results
attr runnumber 0
attr seedset 0
param **.algorithm "\"pf\""
param **.usersCount 10
param **.channelsCount 30
param **.networkLoad 0.9
param **.scheduler.generateInterval 1ms
param **.gen.generateInterval "triang(0.9ms, 1.0ms, 1.1ms)"
param **.user[0].radioLinkQuality 1
param **.user[1].radioLinkQuality 2
param **.user[2].radioLinkQuality 3
param **.user[3].radioLinkQuality 4
param **.user[4].radioLinkQuality 5
param **.user[5].radioLinkQuality 6
param **.user[6].radioLinkQuality 7
param **.user[7].radioLinkQuality 8
param **.user[8].radioLinkQuality 9
param **.user[9].radioLinkQuality 10
param **.user[0].gen.startingMessage 0
param **.user[1].gen.startingMessage 100
param **.user[2].gen.startingMessage 200
param **.user[3].gen.startingMessage 300
param **.user[4].gen.startingMessage 400
param **.user[5].gen.startingMessage 500
param **.user[6].gen.startingMessage 600
param **.user[7].gen.startingMessage 700
param **.user[8].gen.startingMessage 800
param **.user[9].gen.startingMessage 900

vector 0 Network.user[0].queue "Queue before scheduler's run." ETV
vector 1 Network.user[1].queue "Queue before scheduler's run." ETV
vector 2 Network.user[2].queue "Queue before scheduler's run." ETV
vector 3 Network.user[3].queue "Queue before scheduler's run." ETV
vector 4 Network.user[4].queue "Queue before scheduler's run." ETV
vector 5 Network.user[5].queue "Queue before scheduler's run." ETV
vector 6 Network.user[6].queue "Queue before scheduler's run." ETV
vector 7 Network.user[7].queue "Queue before scheduler's run." ETV
vector 8 Network.user[8].queue "Queue before scheduler's run." ETV
vector 9 Network.user[9].queue "Queue before scheduler's run." ETV
vector 10 Network.scheduler "Scheduler free channels" ETV
vector 11 Network.scheduler "Total users' queues lengths" ETV
vector 12 Network.user[9].queue "Queue after scheduler's run." ETV
vector 13 Network.user[8].queue "Queue after scheduler's run." ETV
vector 14 Network.user[7].queue "Queue after scheduler's run." ETV
vector 15 Network.user[6].queue "Queue after scheduler's run." ETV
vector 16 Network.user[5].queue "Queue after scheduler's run." ETV
vector 17 Network.user[4].queue "Queue after scheduler's run." ETV
vector 18 Network.user[3].queue "Queue after scheduler's run." ETV
vector 19 Network.user[2].queue "Queue after scheduler's run." ETV
vector 20 Network.user[1].queue "Queue after scheduler's run." ETV
vector 21 Network.user[0].queue "Queue after scheduler's run." ETV
vector 22 Network.sink lifetime:vector ETV
attr interpolationmode none
attr title "lifetime of arrived jobs, vector"
attr unit s
0	42	0.001	2
0	154	0.002	3
0	268	0.003	3
0	377	0.004	2
0	488	0.005	3
0	605	0.006	3
0	719	0.007	2
0	829	0.008	3
0	945	0.009	3
0	1053	0.01	2
0	1164	0.011	3
0	1282	0.012	3
0	1392	0.013	2
0	1506	0.014	3
0	1619	0.015	3
0	1732	0.016	2
0	1841	0.017	3
0	1956	0.018	3
0	2074	0.019	3
0	2183	0.02	2
0	2298	0.021	3
0	2407	0.022	3
0	2519	0.023	2
0	2636	0.024	3
0	2748	0.025	3
0	2860	0.026	2
0	2972	0.027	3
0	3086	0.028	3
0	3194	0.029	2
0	3309	0.03	3
0	3424	0.031	3
0	3537	0.032	2
0	3649	0.033	3
0	3759	0.034	3
0	3877	0.035	3
0	3989	0.036	2
0	4098	0.037	3
0	4217	0.038	3
0	4327	0.039	2
0	4437	0.04	3
0	4553	0.041	3
0	4665	0.042	2
0	4777	0.043	3
0	4889	0.044	3
0	5003	0.045	2
0	5113	0.046	3
0	5227	0.047	3
0	5343	0.048	2
0	5455	0.049	3
0	5569	0.05	3
0	5681	0.051	3
0	5795	0.052	2
0	5907	0.053	3
0	6020	0.054	3
0	6131	0.055	2
0	6243	0.056	3
0	6361	0.057	3
0	6468	0.058	2
0	6581	0.059	3
0	6699	0.06	3
0	6809	0.061	2
0	6920	0.062	3
0	7034	0.063	3
0	7149	0.064	2
0	7259	0.065	3
0	7371	0.066	3
0	7486	0.067	2
0	7598	0.068	3
0	7709	0.069	3
0	7825	0.07	3
0	7939	0.071	2
0	8049	0.072	3
0	8163	0.073	3
0	8276	0.074	2
0	8386	0.075	3
0	8502	0.076	3
0	8612	0.077	2
0	8724	0.078	3
0	8844	0.079	3
0	8953	0.08	2
0	9062	0.081	3
0	9181	0.082	3
0	9292	0.083	2
0	9402	0.084	3
0	9519	0.085	3
0	9633	0.086	3
0	9740	0.087	2
0	9853	0.088	3
0	9971	0.089	3
1	43	0.001	2
1	155	0.002	3
1	269	0.003	3
1	378	0.004	2
1	489	0.005	3
1	606	0.006	3
1	720	0.007	2
1	830	0.008	3
1	946	0.009	3
1	1054	0.01	2
1	1165	0.011	3
1	1283	0.012	3
1	1393	0.013	2
1	1507	0.014	3
1	1620	0.015	3
1	1733	0.016	2
1	1842	0.017	3
1	1957	0.018	3
1	2075	0.019	2
1	2184	0.02	3
1	2299	0.021	3
1	2408	0.022	2
1	2520	0.023	3
1	2637	0.024	3
1	2749	0.025	2
1	2861	0.026	3
1	2973	0.027	3
1	3087	0.028	2
1	3195	0.029	3
1	3310	0.03	3
1	3425	0.031	2
1	3538	0.032	3
1	3650	0.033	3
1	3760	0.034	2
1	3878	0.035	3
1	3990	0.036	3
1	4099	0.037	2
1	4218	0.038	3
1	4328	0.039	3
1	4438	0.04	2
1	4554	0.041	3
1	4666	0.042	3
1	4778	0.043	2
1	4890	0.044	3
1	5004	0.045	3
1	5114	0.046	2
1	5228	0.047	3
1	5344	0.048	3
1	5456	0.049	3
1	5570	0.05	2
1	5682	0.051	3
1	5796	0.052	3
1	5908	0.053	2
1	6021	0.054	3
1	6132	0.055	3
1	6244	0.056	2
1	6362	0.057	3
1	6469	0.058	3
1	6582	0.059	2
1	6700	0.06	3
1	6810	0.061	3
1	6921	0.062	2
1	7035	0.063	3
1	7150	0.064	3
1	7260	0.065	2
1	7372	0.066	3
1	7487	0.067	3
1	7599	0.068	2
1	7710	0.069	3
1	7826	0.07	3
1	7940	0.071	2
1	8050	0.072	3
1	8164	0.073	3
1	8277	0.074	2
1	8387	0.075	3
1	8503	0.076	3
1	8613	0.077	2
1	8725	0.078	3
1	8845	0.079	3
1	8954	0.08	2
1	9063	0.081	3
1	9182	0.082	3
1	9293	0.083	2
1	9403	0.084	3
1	9520	0.085	3
1	9634	0.086	2
1	9741	0.087	3
1	9854	0.088	3
1	9972	0.089	2
2	44	0.001	2
2	156	0.002	3
2	270	0.003	2
2	379	0.004	3
2	490	0.005	3
2	607	0.006	2
2	721	0.007	3
2	831	0.008	3
2	947	0.009	2
2	1055	0.01	3
2	1166	0.011	2
2	1284	0.012	3
2	1394	0.013	3
2	1508	0.014	2
2	1621	0.015	3
2	1734	0.016	3
2	1843	0.017	2
2	1958	0.018	3
2	2076	0.019	3
2	2185	0.02	2
2	2300	0.021	3
2	2409	0.022	2
2	2521	0.023	3
2	2638	0.024	3
2	2750	0.025	2
2	2862	0.026	3
2	2974	0.027	3
2	3088	0.028	2
2	3196	0.029	3
2	3311	0.03	3
2	3426	0.031	2
2	3539	0.032	3
2	3651	0.033	2
2	3761	0.034	3
2	3879	0.035	3
2	3991	0.036	2
2	4100	0.037	3
2	4219	0.038	3
2	4329	0.039	2
2	4439	0.04	3
2	4555	0.041	3
2	4667	0.042	2
2	4779	0.043	3
2	4891	0.044	2
2	5005	0.045	3
2	5115	0.046	3
2	5229	0.047	2
2	5345	0.048	3
2	5457	0.049	3
2	5571	0.05	2
2	5683	0.051	3
2	5797	0.052	3
2	5909	0.053	2
2	6022	0.054	3
2	6133	0.055	2
2	6245	0.056	3
2	6363	0.057	3
2	6470	0.058	2
2	6583	0.059	3
2	6701	0.06	3
2	6811	0.061	2
2	6922	0.062	3
2	7036	0.063	3
2	7151	0.064	2
2	7261	0.065	3
2	7373	0.066	2
2	7488	0.067	3
2	7600	0.068	3
2	7711	0.069	2
2	7827	0.07	3
2	7941	0.071	3
2	8051	0.072	2
2	8165	0.073	3
2	8278	0.074	3
2	8388	0.075	2
2	8504	0.076	3
2	8614	0.077	2
2	8726	0.078	3
2	8846	0.079	3
2	8955	0.08	2
2	9064	0.081	3
2	9183	0.082	3
2	9294	0.083	2
2	9404	0.084	3
2	9521	0.085	3
2	9635	0.086	2
2	9742	0.087	3
2	9855	0.088	2
2	9973	0.089	3
3	45	0.001	2
3	157	0.002	3
3	271	0.003	2
3	380	0.004	3
3	491	0.005	2
3	608	0.006	3
3	722	0.007	3
3	832	0.008	2
3	948	0.009	3
3	1056	0.01	2
3	1167	0.011	3
3	1285	0.012	3
3	1395	0.013	2
3	1509	0.014	3
3	1622	0.015	2
3	1735	0.016	3
3	1844	0.017	2
3	1959	0.018	3
3	2077	0.019	3
3	2186	0.02	2
3	2301	0.021	3
3	2410	0.022	2
3	2522	0.023	3
3	2639	0.024	3
3	2751	0.025	2
3	2863	0.026	3
3	2975	0.027	2
3	3089	0.028	3
3	3197	0.029	2
3	3312	0.03	3
3	3427	0.031	3
3	3540	0.032	2
3	3652	0.033	3
3	3762	0.034	2
3	3880	0.035	3
3	3992	0.036	3
3	4101	0.037	2
3	4220	0.038	3
3	4330	0.039	2
3	4440	0.04	3
3	4556	0.041	3
3	4668	0.042	2
3	4780	0.043	3
3	4892	0.044	2
3	5006	0.045	3
3	5116	0.046	2
3	5230	0.047	3
3	5346	0.048	3
3	5458	0.049	2
3	5572	0.05	3
3	5684	0.051	2
3	5798	0.052	3
3	5910	0.053	3
3	6023	0.054	2
3	6134	0.055	3
3	6246	0.056	2
3	6364	0.057	3
3	6471	0.058	2
3	6584	0.059	3
3	6702	0.06	3
3	6812	0.061	2
3	6923	0.062	3
3	7037	0.063	2
3	7152	0.064	3
3	7262	0.065	3
3	7374	0.066	2
3	7489	0.067	3
3	7601	0.068	2
3	7712	0.069	3
3	7828	0.07	3
3	7942	0.071	2
3	8052	0.072	3
3	8166	0.073	2
3	8279	0.074	3
3	8389	0.075	2
3	8505	0.076	3
3	8615	0.077	3
3	8727	0.078	2
3	8847	0.079	3
3	8956	0.08	2
3	9065	0.081	3
3	9184	0.082	3
3	9295	0.083	2
3	9405	0.084	3
3	9522	0.085	2
3	9636	0.086	3
3	9743	0.087	2
3	9856	0.088	3
3	9974	0.089	3
4	46	0.001	2
4	158	0.002	3
4	272	0.003	3
4	381	0.004	2
4	492	0.005	3
4	609	0.006	3
4	723	0.007	2
4	833	0.008	3
4	949	0.009	3
4	1057	0.01	2
4	1168	0.011	3
4	1286	0.012	3
4	1396	0.013	2
4	1510	0.014	3
4	1623	0.015	3
4	1736	0.016	2
4	1845	0.017	3
4	1960	0.018	3
4	2078	0.019	2
4	2187	0.02	3
4	2302	0.021	3
4	2411	0.022	2
4	2523	0.023	3
4	2640	0.024	3
4	2752	0.025	2
4	2864	0.026	3
4	2976	0.027	3
4	3090	0.028	2
4	3198	0.029	3
4	3313	0.03	3
4	3428	0.031	2
4	3541	0.032	3
4	3653	0.033	3
4	3763	0.034	2
4	3881	0.035	3
4	3993	0.036	3
4	4102	0.037	2
4	4221	0.038	3
4	4331	0.039	3
4	4441	0.04	2
4	4557	0.041	3
4	4669	0.042	3
4	4781	0.043	2
4	4893	0.044	3
4	5007	0.045	3
4	5117	0.046	2
4	5231	0.047	3
4	5347	0.048	3
4	5459	0.049	2
4	5573	0.05	3
4	5685	0.051	3
4	5799	0.052	2
4	5911	0.053	3
4	6024	0.054	3
4	6135	0.055	2
4	6247	0.056	3
4	6365	0.057	3
4	6472	0.058	2
4	6585	0.059	3
4	6703	0.06	3
4	6813	0.061	2
4	6924	0.062	3
4	7038	0.063	3
4	7153	0.064	2
4	7263	0.065	3
4	7375	0.066	3
4	7490	0.067	2
4	7602	0.068	3
4	7713	0.069	3
4	7829	0.07	2
4	7943	0.071	3
4	8053	0.072	3
4	8167	0.073	2
4	8280	0.074	3
4	8390	0.075	3
4	8506	0.076	2
4	8616	0.077	3
4	8728	0.078	3
4	8848	0.079	3
4	8957	0.08	2
4	9066	0.081	3
4	9185	0.082	3
4	9296	0.083	2
4	9406	0.084	3
4	9523	0.085	3
4	9637	0.086	2
4	9744	0.087	3
4	9857	0.088	3
4	9975	0.089	2
5	47	0.001	2
5	159	0.002	3
5	273	0.003	2
5	382	0.004	3
5	493	0.005	2
5	610	0.006	3
5	724	0.007	3
5	834	0.008	2
5	950	0.009	3
5	1058	0.01	2
5	1169	0.011	3
5	1287	0.012	2
5	1397	0.013	3
5	1511	0.014	3
5	1624	0.015	2
5	1737	0.016	3
5	1846	0.017	2
5	1961	0.018	3
5	2079	0.019	3
5	2188	0.02	2
5	2303	0.021	3
5	2412	0.022	2
5	2524	0.023	3
5	2641	0.024	2
5	2753	0.025	3
5	2865	0.026	3
5	2977	0.027	2
5	3091	0.028	3
5	3199	0.029	2
5	3314	0.03	3
5	3429	0.031	2
5	3542	0.032	3
5	3654	0.033	3
5	3764	0.034	2
5	3882	0.035	3
5	3994	0.036	2
5	4103	0.037	3
5	4222	0.038	3
5	4332	0.039	2
5	4442	0.04	3
5	4558	0.041	2
5	4670	0.042	3
5	4782	0.043	2
5	4894	0.044	3
5	5008	0.045	3
5	5118	0.046	2
5	5232	0.047	3
5	5348	0.048	2
5	5460	0.049	3
5	5574	0.05	2
5	5686	0.051	3
5	5800	0.052	3
5	5912	0.053	2
5	6025	0.054	3
5	6136	0.055	2
5	6248	0.056	3
5	6366	0.057	3
5	6473	0.058	2
5	6586	0.059	3
5	6704	0.06	2
5	6814	0.061	3
5	6925	0.062	2
5	7039	0.063	3
5	7154	0.064	3
5	7264	0.065	2
5	7376	0.066	3
5	7491	0.067	2
5	7603	0.068	3
5	7714	0.069	2
5	7830	0.07	3
5	7944	0.071	3
5	8054	0.072	2
5	8168	0.073	3
5	8281	0.074	2
5	8391	0.075	3
5	8507	0.076	3
5	8617	0.077	2
5	8729	0.078	3
5	8849	0.079	2
5	8958	0.08	3
5	9067	0.081	2
5	9186	0.082	3
5	9297	0.083	3
5	9407	0.084	2
5	9524	0.085	3
5	9638	0.086	2
5	9745	0.087	3
5	9858	0.088	2
5	9976	0.089	3
6	48	0.001	2
6	160	0.002	3
6	274	0.003	3
6	383	0.004	2
6	494	0.005	3
6	611	0.006	3
6	725	0.007	2
6	835	0.008	3
6	951	0.009	3
6	1059	0.01	2
6	1170	0.011	3
6	1288	0.012	3
6	1398	0.013	2
6	1512	0.014	3
6	1625	0.015	3
6	1738	0.016	3
6	1847	0.017	2
6	1962	0.018	3
6	2080	0.019	3
6	2189	0.02	2
6	2304	0.021	3
6	2413	0.022	3
6	2525	0.023	2
6	2642	0.024	3
6	2754	0.025	3
6	2866	0.026	2
6	2978	0.027	3
6	3092	0.028	3
6	3200	0.029	2
6	3315	0.03	3
6	3430	0.031	3
6	3543	0.032	3
6	3655	0.033	2
6	3765	0.034	3
6	3883	0.035	3
6	3995	0.036	2
6	4104	0.037	3
6	4223	0.038	3
6	4333	0.039	2
6	4443	0.04	3
6	4559	0.041	3
6	4671	0.042	2
6	4783	0.043	3
6	4895	0.044	3
6	5009	0.045	2
6	5119	0.046	3
6	5233	0.047	3
6	5349	0.048	3
6	5461	0.049	2
6	5575	0.05	3
6	5687	0.051	3
6	5801	0.052	2
6	5913	0.053	3
6	6026	0.054	3
6	6137	0.055	2
6	6249	0.056	3
6	6367	0.057	3
6	6474	0.058	2
6	6587	0.059	3
6	6705	0.06	3
6	6815	0.061	2
6	6926	0.062	3
6	7040	0.063	3
6	7155	0.064	3
6	7265	0.065	2
6	7377	0.066	3
6	7492	0.067	3
6	7604	0.068	2
6	7715	0.069	3
6	7831	0.07	3
6	7945	0.071	2
6	8055	0.072	3
6	8169	0.073	3
6	8282	0.074	2
6	8392	0.075	3
6	8508	0.076	3
6	8618	0.077	2
6	8730	0.078	3
6	8850	0.079	3
6	8959	0.08	3
6	9068	0.081	2
6	9187	0.082	3
6	9298	0.083	3
6	9408	0.084	2
6	9525	0.085	3
6	9639	0.086	3
6	9746	0.087	2
6	9859	0.088	3
6	9977	0.089	3
7	49	0.001	2
7	161	0.002	3
7	275	0.003	2
7	384	0.004	3
7	495	0.005	2
7	612	0.006	3
7	726	0.007	3
7	836	0.008	2
7	952	0.009	3
7	1060	0.01	2
7	1171	0.011	3
7	1289	0.012	3
7	1399	0.013	2
7	1513	0.014	3
7	1626	0.015	2
7	1739	0.016	3
7	1848	0.017	2
7	1963	0.018	3
7	2081	0.019	3
7	2190	0.02	2
7	2305	0.021	3
7	2414	0.022	2
7	2526	0.023	3
7	2643	0.024	3
7	2755	0.025	2
7	2867	0.026	3
7	2979	0.027	2
7	3093	0.028	3
7	3201	0.029	2
7	3316	0.03	3
7	3431	0.031	3
7	3544	0.032	2
7	3656	0.033	3
7	3766	0.034	2
7	3884	0.035	3
7	3996	0.036	3
7	4105	0.037	2
7	4224	0.038	3
7	4334	0.039	2
7	4444	0.04	3
7	4560	0.041	2
7	4672	0.042	3
7	4784	0.043	3
7	4896	0.044	2
7	5010	0.045	3
7	5120	0.046	2
7	5234	0.047	3
7	5350	0.048	3
7	5462	0.049	2
7	5576	0.05	3
7	5688	0.051	2
7	5802	0.052	3
7	5914	0.053	2
7	6027	0.054	3
7	6138	0.055	3
7	6250	0.056	2
7	6368	0.057	3
7	6475	0.058	2
7	6588	0.059	3
7	6706	0.06	3
7	6816	0.061	2
7	6927	0.062	3
7	7041	0.063	2
7	7156	0.064	3
7	7266	0.065	2
7	7378	0.066	3
7	7493	0.067	3
7	7605	0.068	2
7	7716	0.069	3
7	7832	0.07	2
7	7946	0.071	3
7	8056	0.072	3
7	8170	0.073	2
7	8283	0.074	3
7	8393	0.075	2
7	8509	0.076	3
7	8619	0.077	2
7	8731	0.078	3
7	8851	0.079	3
7	8960	0.08	2
7	9069	0.081	3
7	9188	0.082	2
7	9299	0.083	3
7	9409	0.084	3
7	9526	0.085	2
7	9640	0.086	3
7	9747	0.087	2
7	9860	0.088	3
7	9978	0.089	3
8	50	0.001	2
8	162	0.002	3
8	276	0.003	3
8	385	0.004	2
8	496	0.005	3
8	613	0.006	3
8	727	0.007	3
8	837	0.008	2
8	953	0.009	3
8	1061	0.01	3
8	1172	0.011	2
8	1290	0.012	3
8	1400	0.013	3
8	1514	0.014	3
8	1627	0.015	2
8	1740	0.016	3
8	1849	0.017	3
8	1964	0.018	2
8	2082	0.019	3
8	2191	0.02	3
8	2306	0.021	3
8	2415	0.022	2
8	2527	0.023	3
8	2644	0.024	3
8	2756	0.025	3
8	2868	0.026	2
8	2980	0.027	3
8	3094	0.028	3
8	3202	0.029	2
8	3317	0.03	3
8	3432	0.031	3
8	3545	0.032	3
8	3657	0.033	2
8	3767	0.034	3
8	3885	0.035	3
8	3997	0.036	2
8	4106	0.037	3
8	4225	0.038	3
8	4335	0.039	3
8	4445	0.04	2
8	4561	0.041	3
8	4673	0.042	3
8	4785	0.043	3
8	4897	0.044	2
8	5011	0.045	3
8	5121	0.046	3
8	5235	0.047	2
8	5351	0.048	3
8	5463	0.049	3
8	5577	0.05	3
8	5689	0.051	2
8	5803	0.052	3
8	5915	0.053	3
8	6028	0.054	2
8	6139	0.055	3
8	6251	0.056	3
8	6369	0.057	3
8	6476	0.058	2
8	6589	0.059	3
8	6707	0.06	3
8	6817	0.061	3
8	6928	0.062	2
8	7042	0.063	3
8	7157	0.064	3
8	7267	0.065	2
8	7379	0.066	3
8	7494	0.067	3
8	7606	0.068	3
8	7717	0.069	2
8	7833	0.07	3
8	7947	0.071	3
8	8057	0.072	2
8	8171	0.073	3
8	8284	0.074	3
8	8394	0.075	3
8	8510	0.076	2
8	8620	0.077	3
8	8732	0.078	3
8	8852	0.079	3
8	8961	0.08	2
8	9070	0.081	3
8	9189	0.082	3
8	9300	0.083	2
8	9410	0.084	3
8	9527	0.085	3
8	9641	0.086	3
8	9748	0.087	2
8	9861	0.088	3
8	9979	0.089	3
9	51	0.001	2
9	163	0.002	3
9	277	0.003	2
9	386	0.004	3
9	497	0.005	3
9	614	0.006	2
9	728	0.007	3
9	838	0.008	3
9	954	0.009	2
9	1062	0.01	3
9	1173	0.011	3
9	1291	0.012	2
9	1401	0.013	3
9	1515	0.014	3
9	1628	0.015	2
9	1741	0.016	3
9	1850	0.017	3
9	1965	0.018	2
9	2083	0.019	3
9	2192	0.02	3
9	2307	0.021	2
9	2416	0.022	3
9	2528	0.023	3
9	2645	0.024	2
9	2757	0.025	3
9	2869	0.026	3
9	2981	0.027	2
9	3095	0.028	3
9	3203	0.029	3
9	3318	0.03	2
9	3433	0.031	3
9	3546	0.032	3
9	3658	0.033	2
9	3768	0.034	3
9	3886	0.035	3
9	3998	0.036	2
9	4107	0.037	3
9	4226	0.038	3
9	4336	0.039	2
9	4446	0.04	3
9	4562	0.041	3
9	4674	0.042	2
9	4786	0.043	3
9	4898	0.044	3
9	5012	0.045	2
9	5122	0.046	3
9	5236	0.047	3
9	5352	0.048	2
9	5464	0.049	3
9	5578	0.05	3
9	5690	0.051	2
9	5804	0.052	3
9	5916	0.053	3
9	6029	0.054	2
9	6140	0.055	3
9	6252	0.056	3
9	6370	0.057	2
9	6477	0.058	3
9	6590	0.059	3
9	6708	0.06	2
9	6818	0.061	3
9	6929	0.062	3
9	7043	0.063	2
9	7158	0.064	3
9	7268	0.065	3
9	7380	0.066	2
9	7495	0.067	3
9	7607	0.068	3
9	7718	0.069	2
9	7834	0.07	3
9	7948	0.071	3
9	8058	0.072	2
9	8172	0.073	3
9	8285	0.074	3
9	8395	0.075	2
9	8511	0.076	3
9	8621	0.077	3
9	8733	0.078	2
9	8853	0.079	3
9	8962	0.08	3
9	9071	0.081	2
9	9190	0.082	3
9	9301	0.083	3
9	9411	0.084	2
9	9528	0.085	3
9	9642	0.086	3
9	9749	0.087	2
9	9862	0.088	3
9	9980	0.089	3
10	61	0.001	10
10	173	0.002	0
10	287	0.003	5
10	396	0.004	5
10	507	0.005	3
10	624	0.006	2
10	738	0.007	4
10	848	0.008	4
10	964	0.009	2
10	1072	0.01	7
10	1183	0.011	2
10	1301	0.012	2
10	1411	0.013	6
10	1525	0.014	1
10	1638	0.015	5
10	1751	0.016	3
10	1860	0.017	5
10	1975	0.018	2
10	2093	0.019	2
10	2202	0.02	6
10	2317	0.021	1
10	2426	0.022	7
10	2538	0.023	2
10	2655	0.024	2
10	2767	0.025	5
10	2879	0.026	3
10	2991	0.027	4
10	3105	0.028	3
10	3213	0.029	6
10	3328	0.03	1
10	3443	0.031	4
10	3556	0.032	3
10	3668	0.033	4
10	3778	0.034	5
10	3896	0.035	0
10	4008	0.036	6
10	4117	0.037	4
10	4236	0.038	0
10	4346	0.039	7
10	4456	0.04	3
10	4572	0.041	2
10	4684	0.042	5
10	4796	0.043	3
10	4908	0.044	4
10	5022	0.045	3
10	5132	0.046	5
10	5246	0.047	2
10	5362	0.048	3
10	5474	0.049	4
10	5588	0.05	3
10	5700	0.051	4
10	5814	0.052	3
10	5926	0.053	4
10	6039	0.054	3
10	6150	0.055	5
10	6262	0.056	3
10	6380	0.057	1
10	6487	0.058	8
10	6600	0.059	1
10	6718	0.06	2
10	6828	0.061	6
10	6939	0.062	3
10	7053	0.063	3
10	7168	0.064	3
10	7278	0.065	5
10	7390	0.066	3
10	7505	0.067	3
10	7617	0.068	4
10	7728	0.069	4
10	7844	0.07	2
10	7958	0.071	4
10	8068	0.072	4
10	8182	0.073	3
10	8295	0.074	4
10	8405	0.075	4
10	8521	0.076	2
10	8631	0.077	6
10	8743	0.078	2
10	8863	0.079	1
10	8972	0.08	7
10	9081	0.081	3
10	9200	0.082	1
10	9311	0.083	6
10	9421	0.084	3
10	9538	0.085	2
10	9652	0.086	4
10	9759	0.087	6
10	9872	0.088	2
10	9990	0.089	2
11	61	0.001	0
11	173	0.002	0
11	287	0.003	0
11	396	0.004	0
11	507	0.005	0
11	624	0.006	0
11	738	0.007	0
11	848	0.008	0
11	964	0.009	0
11	1072	0.01	0
11	1183	0.011	0
11	1301	0.012	0
11	1411	0.013	0
11	1525	0.014	0
11	1638	0.015	0
11	1751	0.016	0
11	1860	0.017	0
11	1975	0.018	0
11	2093	0.019	0
11	2202	0.02	0
11	2317	0.021	0
11	2426	0.022	0
11	2538	0.023	0
11	2655	0.024	0
11	2767	0.025	0
11	2879	0.026	0
11	2991	0.027	0
11	3105	0.028	0
11	3213	0.029	0
11	3328	0.03	0
11	3443	0.031	0
11	3556	0.032	0
11	3668	0.033	0
11	3778	0.034	0
11	3896	0.035	0
11	4008	0.036	0
11	4117	0.037	0
11	4236	0.038	0
11	4346	0.039	0
11	4456	0.04	0
11	4572	0.041	0
11	4684	0.042	0
11	4796	0.043	0
11	4908	0.044	0
11	5022	0.045	0
11	5132	0.046	0
11	5246	0.047	0
11	5362	0.048	0
11	5474	0.049	0
11	5588	0.05	0
11	5700	0.051	0
11	5814	0.052	0
11	5926	0.053	0
11	6039	0.054	0
11	6150	0.055	0
11	6262	0.056	0
11	6380	0.057	0
11	6487	0.058	0
11	6600	0.059	0
11	6718	0.06	0
11	6828	0.061	0
11	6939	0.062	0
11	7053	0.063	0
11	7168	0.064	0
11	7278	0.065	0
11	7390	0.066	0
11	7505	0.067	0
11	7617	0.068	0
11	7728	0.069	0
11	7844	0.07	0
11	7958	0.071	0
11	8068	0.072	0
11	8182	0.073	0
11	8295	0.074	0
11	8405	0.075	0
11	8521	0.076	0
11	8631	0.077	0
11	8743	0.078	0
11	8863	0.079	0
11	8972	0.08	0
11	9081	0.081	0
11	9200	0.082	0
11	9311	0.083	0
11	9421	0.084	0
11	9538	0.085	0
11	9652	0.086	0
11	9759	0.087	0
11	9872	0.088	0
11	9990	0.089	0
12	62	0.001	0
12	174	0.002	0
12	288	0.003	0
12	397	0.004	0
12	508	0.005	0
12	625	0.006	0
12	739	0.007	0
12	849	0.008	0
12	965	0.009	0
12	1073	0.01	0
12	1184	0.011	0
12	1302	0.012	0
12	1412	0.013	0
12	1526	0.014	0
12	1639	0.015	0
12	1752	0.016	0
12	1861	0.017	0
12	1976	0.018	0
12	2094	0.019	0
12	2203	0.02	0
12	2318	0.021	0
12	2427	0.022	0
12	2539	0.023	0
12	2656	0.024	0
12	2768	0.025	0
12	2880	0.026	0
12	2992	0.027	0
12	3106	0.028	0
12	3214	0.029	0
12	3329	0.03	0
12	3444	0.031	0
12	3557	0.032	0
12	3669	0.033	0
12	3779	0.034	0
12	3897	0.035	0
12	4009	0.036	0
12	4118	0.037	0
12	4237	0.038	0
12	4347	0.039	0
12	4457	0.04	0
12	4573	0.041	0
12	4685	0.042	0
12	4797	0.043	0
12	4909	0.044	0
12	5023	0.045	0
12	5133	0.046	0
12	5247	0.047	0
12	5363	0.048	0
12	5475	0.049	0
12	5589	0.05	0
12	5701	0.051	0
12	5815	0.052	0
12	5927	0.053	0
12	6040	0.054	0
12	6151	0.055	0
12	6263	0.056	0
12	6381	0.057	0
12	6488	0.058	0
12	6601	0.059	0
12	6719	0.06	0
12	6829	0.061	0
12	6940	0.062	0
12	7054	0.063	0
12	7169	0.064	0
12	7279	0.065	0
12	7391	0.066	0
12	7506	0.067	0
12	7618	0.068	0
12	7729	0.069	0
12	7845	0.07	0
12	7959	0.071	0
12	8069	0.072	0
12	8183	0.073	0
12	8296	0.074	0
12	8406	0.075	0
12	8522	0.076	0
12	8632	0.077	0
12	8744	0.078	0
12	8864	0.079	0
12	8973	0.08	0
12	9082	0.081	0
12	9201	0.082	0
12	9312	0.083	0
12	9422	0.084	0
12	9539	0.085	0
12	9653	0.086	0
12	9760	0.087	0
12	9873	0.088	0
12	9991	0.089	0
13	63	0.001	0
13	175	0.002	0
13	289	0.003	0
13	398	0.004	0
13	509	0.005	0
13	626	0.006	0
13	740	0.007	0
13	850	0.008	0
13	966	0.009	0
13	1074	0.01	0
13	1185	0.011	0
13	1303	0.012	0
13	1413	0.013	0
13	1527	0.014	0
13	1640	0.015	0
13	1753	0.016	0
13	1862	0.017	0
13	1977	0.018	0
13	2095	0.019	0
13	2204	0.02	0
13	2319	0.021	0
13	2428	0.022	0
13	2540	0.023	0
13	2657	0.024	0
13	2769	0.025	0
13	2881	0.026	0
13	2993	0.027	0
13	3107	0.028	0
13	3215	0.029	0
13	3330	0.03	0
13	3445	0.031	0
13	3558	0.032	0
13	3670	0.033	0
13	3780	0.034	0
13	3898	0.035	0
13	4010	0.036	0
13	4119	0.037	0
13	4238	0.038	0
13	4348	0.039	0
13	4458	0.04	0
13	4574	0.041	0
13	4686	0.042	0
13	4798	0.043	0
13	4910	0.044	0
13	5024	0.045	0
13	5134	0.046	0
13	5248	0.047	0
13	5364	0.048	0
13	5476	0.049	0
13	5590	0.05	0
13	5702	0.051	0
13	5816	0.052	0
13	5928	0.053	0
13	6041	0.054	0
13	6152	0.055	0
13	6264	0.056	0
13	6382	0.057	0
13	6489	0.058	0
13	6602	0.059	0
13	6720	0.06	0
13	6830	0.061	0
13	6941	0.062	0
13	7055	0.063	0
13	7170	0.064	0
13	7280	0.065	0
13	7392	0.066	0
13	7507	0.067	0
13	7619	0.068	0
13	7730	0.069	0
13	7846	0.07	0
13	7960	0.071	0
13	8070	0.072	0
13	8184	0.073	0
13	8297	0.074	0
13	8407	0.075	0
13	8523	0.076	0
13	8633	0.077	0
13	8745	0.078	0
13	8865	0.079	0
13	8974	0.08	0
13	9083	0.081	0
13	9202	0.082	0
13	9313	0.083	0
13	9423	0.084	0
13	9540	0.085	0
13	9654	0.086	0
13	9761	0.087	0
13	9874	0.088	0
13	9992	0.089	0
14	64	0.001	0
14	176	0.002	0
14	290	0.003	0
14	399	0.004	0
14	510	0.005	0
14	627	0.006	0
14	741	0.007	0
14	851	0.008	0
14	967	0.009	0
14	1075	0.01	0
14	1186	0.011	0
14	1304	0.012	0
14	1414	0.013	0
14	1528	0.014	0
14	1641	0.015	0
14	1754	0.016	0
14	1863	0.017	0
14	1978	0.018	0
14	2096	0.019	0
14	2205	0.02	0
14	2320	0.021	0
14	2429	0.022	0
14	2541	0.023	0
14	2658	0.024	0
14	2770	0.025	0
14	2882	0.026	0
14	2994	0.027	0
14	3108	0.028	0
14	3216	0.029	0
14	3331	0.03	0
14	3446	0.031	0
14	3559	0.032	0
14	3671	0.033	0
14	3781	0.034	0
14	3899	0.035	0
14	4011	0.036	0
14	4120	0.037	0
14	4239	0.038	0
14	4349	0.039	0
14	4459	0.04	0
14	4575	0.041	0
14	4687	0.042	0
14	4799	0.043	0
14	4911	0.044	0
14	5025	0.045	0
14	5135	0.046	0
14	5249	0.047	0
14	5365	0.048	0
14	5477	0.049	0
14	5591	0.05	0
14	5703	0.051	0
14	5817	0.052	0
14	5929	0.053	0
14	6042	0.054	0
14	6153	0.055	0
14	6265	0.056	0
14	6383	0.057	0
14	6490	0.058	0
14	6603	0.059	0
14	6721	0.06	0
14	6831	0.061	0
14	6942	0.062	0
14	7056	0.063	0
14	7171	0.064	0
14	7281	0.065	0
14	7393	0.066	0
14	7508	0.067	0
14	7620	0.068	0
14	7731	0.069	0
14	7847	0.07	0
14	7961	0.071	0
14	8071	0.072	0
14	8185	0.073	0
14	8298	0.074	0
14	8408	0.075	0
14	8524	0.076	0
14	8634	0.077	0
14	8746	0.078	0
14	8866	0.079	0
14	8975	0.08	0
14	9084	0.081	0
14	9203	0.082	0
14	9314	0.083	0
14	9424	0.084	0
14	9541	0.085	0
14	9655	0.086	0
14	9762	0.087	0
14	9875	0.088	0
14	9993	0.089	0
15	65	0.001	0
15	177	0.002	0
15	291	0.003	0
15	400	0.004	0
15	511	0.005	0
15	628	0.006	0
15	742	0.007	0
15	852	0.008	0
15	968	0.009	0
15	1076	0.01	0
15	1187	0.011	0
15	1305	0.012	0
15	1415	0.013	0
15	1529	0.014	0
15	1642	0.015	0
15	1755	0.016	0
15	1864	0.017	0
15	1979	0.018	0
15	2097	0.019	0
15	2206	0.02	0
15	2321	0.021	0
15	2430	0.022	0
15	2542	0.023	0
15	2659	0.024	0
15	2771	0.025	0
15	2883	0.026	0
15	2995	0.027	0
15	3109	0.028	0
15	3217	0.029	0
15	3332	0.03	0
15	3447	0.031	0
15	3560	0.032	0
15	3672	0.033	0
15	3782	0.034	0
15	3900	0.035	0
15	4012	0.036	0
15	4121	0.037	0
15	4240	0.038	0
15	4350	0.039	0
15	4460	0.04	0
15	4576	0.041	0
15	4688	0.042	0
15	4800	0.043	0
15	4912	0.044	0
15	5026	0.045	0
15	5136	0.046	0
15	5250	0.047	0
15	5366	0.048	0
15	5478	0.049	0
15	5592	0.05	0
15	5704	0.051	0
15	5818	0.052	0
15	5930	0.053	0
15	6043	0.054	0
15	6154	0.055	0
15	6266	0.056	0
15	6384	0.057	0
15	6491	0.058	0
15	6604	0.059	0
15	6722	0.06	0
15	6832	0.061	0
15	6943	0.062	0
15	7057	0.063	0
15	7172	0.064	0
15	7282	0.065	0
15	7394	0.066	0
15	7509	0.067	0
15	7621	0.068	0
15	7732	0.069	0
15	7848	0.07	0
15	7962	0.071	0
15	8072	0.072	0
15	8186	0.073	0
15	8299	0.074	0
15	8409	0.075	0
15	8525	0.076	0
15	8635	0.077	0
15	8747	0.078	0
15	8867	0.079	0
15	8976	0.08	0
15	9085	0.081	0
15	9204	0.082	0
15	9315	0.083	0
15	9425	0.084	0
15	9542	0.085	0
15	9656	0.086	0
15	9763	0.087	0
15	9876	0.088	0
15	9994	0.089	0
16	66	0.001	0
16	178	0.002	0
16	292	0.003	0
16	401	0.004	0
16	512	0.005	0
16	629	0.006	0
16	743	0.007	0
16	853	0.008	0
16	969	0.009	0
16	1077	0.01	0
16	1188	0.011	0
16	1306	0.012	0
16	1416	0.013	0
16	1530	0.014	0
16	1643	0.015	0
16	1756	0.016	0
16	1865	0.017	0
16	1980	0.018	0
16	2098	0.019	0
16	2207	0.02	0
16	2322	0.021	0
16	2431	0.022	0
16	2543	0.023	0
16	2660	0.024	0
16	2772	0.025	0
16	2884	0.026	0
16	2996	0.027	0
16	3110	0.028	0
16	3218	0.029	0
16	3333	0.03	0
16	3448	0.031	0
16	3561	0.032	0
16	3673	0.033	0
16	3783	0.034	0
16	3901	0.035	0
16	4013	0.036	0
16	4122	0.037	0
16	4241	0.038	0
16	4351	0.039	0
16	4461	0.04	0
16	4577	0.041	0
16	4689	0.042	0
16	4801	0.043	0
16	4913	0.044	0
16	5027	0.045	0
16	5137	0.046	0
16	5251	0.047	0
16	5367	0.048	0
16	5479	0.049	0
16	5593	0.05	0
16	5705	0.051	0
16	5819	0.052	0
16	5931	0.053	0
16	6044	0.054	0
16	6155	0.055	0
16	6267	0.056	0
16	6385	0.057	0
16	6492	0.058	0
16	6605	0.059	0
16	6723	0.06	0
16	6833	0.061	0
16	6944	0.062	0
16	7058	0.063	0
16	7173	0.064	0
16	7283	0.065	0
16	7395	0.066	0
16	7510	0.067	0
16	7622	0.068	0
16	7733	0.069	0
16	7849	0.07	0
16	7963	0.071	0
16	8073	0.072	0
16	8187	0.073	0
16	8300	0.074	0
16	8410	0.075	0
16	8526	0.076	0
16	8636	0.077	0
16	8748	0.078	0
16	8868	0.079	0
16	8977	0.08	0
16	9086	0.081	0
16	9205	0.082	0
16	9316	0.083	0
16	9426	0.084	0
16	9543	0.085	0
16	9657	0.086	0
16	9764	0.087	0
16	9877	0.088	0
16	9995	0.089	0
17	67	0.001	0
17	179	0.002	0
17	293	0.003	0
17	402	0.004	0
17	513	0.005	0
17	630	0.006	0
17	744	0.007	0
17	854	0.008	0
17	970	0.009	0
17	1078	0.01	0
17	1189	0.011	0
17	1307	0.012	0
17	1417	0.013	0
17	1531	0.014	0
17	1644	0.015	0
17	1757	0.016	0
17	1866	0.017	0
17	1981	0.018	0
17	2099	0.019	0
17	2208	0.02	0
17	2323	0.021	0
17	2432	0.022	0
17	2544	0.023	0
17	2661	0.024	0
17	2773	0.025	0
17	2885	0.026	0
17	2997	0.027	0
17	3111	0.028	0
17	3219	0.029	0
17	3334	0.03	0
17	3449	0.031	0
17	3562	0.032	0
17	3674	0.033	0
17	3784	0.034	0
17	3902	0.035	0
17	4014	0.036	0
17	4123	0.037	0
17	4242	0.038	0
17	4352	0.039	0
17	4462	0.04	0
17	4578	0.041	0
17	4690	0.042	0
17	4802	0.043	0
17	4914	0.044	0
17	5028	0.045	0
17	5138	0.046	0
17	5252	0.047	0
17	5368	0.048	0
17	5480	0.049	0
17	5594	0.05	0
17	5706	0.051	0
17	5820	0.052	0
17	5932	0.053	0
17	6045	0.054	0
17	6156	0.055	0
17	6268	0.056	0
17	6386	0.057	0
17	6493	0.058	0
17	6606	0.059	0
17	6724	0.06	0
17	6834	0.061	0
17	6945	0.062	0
17	7059	0.063	0
17	7174	0.064	0
17	7284	0.065	0
17	7396	0.066	0
17	7511	0.067	0
17	7623	0.068	0
17	7734	0.069	0
17	7850	0.07	0
17	7964	0.071	0
17	8074	0.072	0
17	8188	0.073	0
17	8301	0.074	0
17	8411	0.075	0
17	8527	0.076	0
17	8637	0.077	0
17	8749	0.078	0
17	8869	0.079	0
17	8978	0.08	0
17	9087	0.081	0
17	9206	0.082	0
17	9317	0.083	0
17	9427	0.084	0
17	9544	0.085	0
17	9658	0.086	0
17	9765	0.087	0
17	9878	0.088	0
17	9996	0.089	0
18	68	0.001	0
18	180	0.002	0
18	294	0.003	0
18	403	0.004	0
18	514	0.005	0
18	631	0.006	0
18	745	0.007	0
18	855	0.008	0
18	971	0.009	0
18	1079	0.01	0
18	1190	0.011	0
18	1308	0.012	0
18	1418	0.013	0
18	1532	0.014	0
18	1645	0.015	0
18	1758	0.016	0
18	1867	0.017	0
18	1982	0.018	0
18	2100	0.019	0
18	2209	0.02	0
18	2324	0.021	0
18	2433	0.022	0
18	2545	0.023	0
18	2662	0.024	0
18	2774	0.025	0
18	2886	0.026	0
18	2998	0.027	0
18	3112	0.028	0
18	3220	0.029	0
18	3335	0.03	0
18	3450	0.031	0
18	3563	0.032	0
18	3675	0.033	0
18	3785	0.034	0
18	3903	0.035	0
18	4015	0.036	0
18	4124	0.037	0
18	4243	0.038	0
18	4353	0.039	0
18	4463	0.04	0
18	4579	0.041	0
18	4691	0.042	0
18	4803	0.043	0
18	4915	0.044	0
18	5029	0.045	0
18	5139	0.046	0
18	5253	0.047	0
18	5369	0.048	0
18	5481	0.049	0
18	5595	0.05	0
18	5707	0.051	0
18	5821	0.052	0
18	5933	0.053	0
18	6046	0.054	0
18	6157	0.055	0
18	6269	0.056	0
18	6387	0.057	0
18	6494	0.058	0
18	6607	0.059	0
18	6725	0.06	0
18	6835	0.061	0
18	6946	0.062	0
18	7060	0.063	0
18	7175	0.064	0
18	7285	0.065	0
18	7397	0.066	0
18	7512	0.067	0
18	7624	0.068	0
18	7735	0.069	0
18	7851	0.07	0
18	7965	0.071	0
18	8075	0.072	0
18	8189	0.073	0
18	8302	0.074	0
18	8412	0.075	0
18	8528	0.076	0
18	8638	0.077	0
18	8750	0.078	0
18	8870	0.079	0
18	8979	0.08	0
18	9088	0.081	0
18	9207	0.082	0
18	9318	0.083	0
18	9428	0.084	0
18	9545	0.085	0
18	9659	0.086	0
18	9766	0.087	0
18	9879	0.088	0
18	9997	0.089	0
19	69	0.001	0
19	181	0.002	0
19	295	0.003	0
19	404	0.004	0
19	515	0.005	0
19	632	0.006	0
19	746	0.007	0
19	856	0.008	0
19	972	0.009	0
19	1080	0.01	0
19	1191	0.011	0
19	1309	0.012	0
19	1419	0.013	0
19	1533	0.014	0
19	1646	0.015	0
19	1759	0.016	0
19	1868	0.017	0
19	1983	0.018	0
19	2101	0.019	0
19	2210	0.02	0
19	2325	0.021	0
19	2434	0.022	0
19	2546	0.023	0
19	2663	0.024	0
19	2775	0.025	0
19	2887	0.026	0
19	2999	0.027	0
19	3113	0.028	0
19	3221	0.029	0
19	3336	0.03	0
19	3451	0.031	0
19	3564	0.032	0
19	3676	0.033	0
19	3786	0.034	0
19	3904	0.035	0
19	4016	0.036	0
19	4125	0.037	0
19	4244	0.038	0
19	4354	0.039	0
19	4464	0.04	0
19	4580	0.041	0
19	4692	0.042	0
19	4804	0.043	0
19	4916	0.044	0
19	5030	0.045	0
19	5140	0.046	0
19	5254	0.047	0
19	5370	0.048	0
19	5482	0.049	0
19	5596	0.05	0
19	5708	0.051	0
19	5822	0.052	0
19	5934	0.053	0
19	6047	0.054	0
19	6158	0.055	0
19	6270	0.056	0
19	6388	0.057	0
19	6495	0.058	0
19	6608	0.059	0
19	6726	0.06	0
19	6836	0.061	0
19	6947	0.062	0
19	7061	0.063	0
19	7176	0.064	0
19	7286	0.065	0
19	7398	0.066	0
19	7513	0.067	0
19	7625	0.068	0
19	7736	0.069	0
19	7852	0.07	0
19	7966	0.071	0
19	8076	0.072	0
19	8190	0.073	0
19	8303	0.074	0
19	8413	0.075	0
19	8529	0.076	0
19	8639	0.077	0
19	8751	0.078	0
19	8871	0.079	0
19	8980	0.08	0
19	9089	0.081	0
19	9208	0.082	0
19	9319	0.083	0
19	9429	0.084	0
19	9546	0.085	0
19	9660	0.086	0
19	9767	0.087	0
19	9880	0.088	0
19	9998	0.089	0
20	70	0.001	0
20	182	0.002	1
20	184	0.002	0
20	296	0.003	1
20	298	0.003	0
20	405	0.004	0
20	516	0.005	1
20	518	0.005	0
20	633	0.006	1
20	635	0.006	0
20	747	0.007	0
20	857	0.008	1
20	859	0.008	0
20	973	0.009	1
20	975	0.009	0
20	1081	0.01	0
20	1192	0.011	1
20	1194	0.011	0
20	1310	0.012	1
20	1312	0.012	0
20	1420	0.013	0
20	1534	0.014	1
20	1536	0.014	0
20	1647	0.015	1
20	1649	0.015	0
20	1760	0.016	0
20	1869	0.017	1
20	1871	0.017	0
20	1984	0.018	1
20	1986	0.018	0
20	2102	0.019	0
20	2211	0.02	1
20	2213	0.02	0
20	2326	0.021	1
20	2328	0.021	0
20	2435	0.022	0
20	2547	0.023	1
20	2549	0.023	0
20	2664	0.024	1
20	2666	0.024	0
20	2776	0.025	0
20	2888	0.026	1
20	2890	0.026	0
20	3000	0.027	1
20	3002	0.027	0
20	3114	0.028	0
20	3222	0.029	1
20	3224	0.029	0
20	3337	0.03	1
20	3339	0.03	0
20	3452	0.031	0
20	3565	0.032	1
20	3567	0.032	0
20	3677	0.033	1
20	3679	0.033	0
20	3787	0.034	0
20	3905	0.035	1
20	3907	0.035	0
20	4017	0.036	1
20	4019	0.036	0
20	4126	0.037	0
20	4245	0.038	1
20	4247	0.038	0
20	4355	0.039	1
20	4357	0.039	0
20	4465	0.04	0
20	4581	0.041	1
20	4583	0.041	0
20	4693	0.042	1
20	4695	0.042	0
20	4805	0.043	0
20	4917	0.044	1
20	4919	0.044	0
20	5031	0.045	1
20	5033	0.045	0
20	5141	0.046	0
20	5255	0.047	1
20	5257	0.047	0
20	5371	0.048	1
20	5373	0.048	0
20	5483	0.049	1
20	5485	0.049	0
20	5597	0.05	0
20	5709	0.051	1
20	5711	0.051	0
20	5823	0.052	1
20	5825	0.052	0
20	5935	0.053	0
20	6048	0.054	1
20	6050	0.054	0
20	6159	0.055	1
20	6161	0.055	0
20	6271	0.056	0
20	6389	0.057	1
20	6391	0.057	0
20	6496	0.058	1
20	6498	0.058	0
20	6609	0.059	0
20	6727	0.06	1
20	6729	0.06	0
20	6837	0.061	1
20	6839	0.061	0
20	6948	0.062	0
20	7062	0.063	1
20	7064	0.063	0
20	7177	0.064	1
20	7179	0.064	0
20	7287	0.065	0
20	7399	0.066	1
20	7401	0.066	0
20	7514	0.067	1
20	7516	0.067	0
20	7626	0.068	0
20	7737	0.069	1
20	7739	0.069	0
20	7853	0.07	1
20	7855	0.07	0
20	7967	0.071	0
20	8077	0.072	1
20	8079	0.072	0
20	8191	0.073	1
20	8193	0.073	0
20	8304	0.074	0
20	8414	0.075	1
20	8416	0.075	0
20	8530	0.076	1
20	8532	0.076	0
20	8640	0.077	0
20	8752	0.078	1
20	8754	0.078	0
20	8872	0.079	1
20	8874	0.079	0
20	8981	0.08	0
20	9090	0.081	1
20	9092	0.081	0
20	9209	0.082	1
20	9211	0.082	0
20	9320	0.083	0
20	9430	0.084	1
20	9432	0.084	0
20	9547	0.085	1
20	9549	0.085	0
20	9661	0.086	0
20	9768	0.087	1
20	9770	0.087	0
20	9881	0.088	1
20	9883	0.088	0
20	9999	0.089	0
21	71	0.001	1
21	72	0.001	0
21	183	0.002	2
21	185	0.002	1
21	186	0.002	0
21	297	0.003	2
21	299	0.003	1
21	300	0.003	0
21	406	0.004	1
21	407	0.004	0
21	517	0.005	2
21	519	0.005	1
21	520	0.005	0
21	634	0.006	2
21	636	0.006	1
21	637	0.006	0
21	748	0.007	1
21	749	0.007	0
21	858	0.008	2
21	860	0.008	1
21	861	0.008	0
21	974	0.009	2
21	976	0.009	1
21	977	0.009	0
21	1082	0.01	1
21	1083	0.01	0
21	1193	0.011	2
21	1195	0.011	1
21	1196	0.011	0
21	1311	0.012	2
21	1313	0.012	1
21	1314	0.012	0
21	1421	0.013	1
21	1422	0.013	0
21	1535	0.014	2
21	1537	0.014	1
21	1538	0.014	0
21	1648	0.015	2
21	1650	0.015	1
21	1651	0.015	0
21	1761	0.016	1
21	1762	0.016	0
21	1870	0.017	2
21	1872	0.017	1
21	1873	0.017	0
21	1985	0.018	2
21	1987	0.018	1
21	1988	0.018	0
21	2103	0.019	2
21	2104	0.019	1
21	2105	0.019	0
21	2212	0.02	1
21	2214	0.02	0
21	2327	0.021	2
21	2329	0.021	1
21	2330	0.021	0
21	2436	0.022	2
21	2437	0.022	1
21	2438	0.022	0
21	2548	0.023	1
21	2550	0.023	0
21	2665	0.024	2
21	2667	0.024	1
21	2668	0.024	0
21	2777	0.025	2
21	2778	0.025	1
21	2779	0.025	0
21	2889	0.026	1
21	2891	0.026	0
21	3001	0.027	2
21	3003	0.027	1
21	3004	0.027	0
21	3115	0.028	2
21	3116	0.028	1
21	3117	0.028	0
21	3223	0.029	1
21	3225	0.029	0
21	3338	0.03	2
21	3340	0.03	1
21	3341	0.03	0
21	3453	0.031	2
21	3454	0.031	1
21	3455	0.031	0
21	3566	0.032	1
21	3568	0.032	0
21	3678	0.033	2
21	3680	0.033	1
21	3681	0.033	0
21	3788	0.034	2
21	3789	0.034	1
21	3790	0.034	0
21	3906	0.035	2
21	3908	0.035	1
21	3909	0.035	0
21	4018	0.036	1
21	4020	0.036	0
21	4127	0.037	2
21	4128	0.037	1
21	4129	0.037	0
21	4246	0.038	2
21	4248	0.038	1
21	4249	0.038	0
21	4356	0.039	1
21	4358	0.039	0
21	4466	0.04	2
21	4467	0.04	1
21	4468	0.04	0
21	4582	0.041	2
21	4584	0.041	1
21	4585	0.041	0
21	4694	0.042	1
21	4696	0.042	0
21	4806	0.043	2
21	4807	0.043	1
21	4808	0.043	0
21	4918	0.044	2
21	4920	0.044	1
21	4921	0.044	0
21	5032	0.045	1
21	5034	0.045	0
21	5142	0.046	2
21	5143	0.046	1
21	5144	0.046	0
21	5256	0.047	2
21	5258	0.047	1
21	5259	0.047	0
21	5372	0.048	1
21	5374	0.048	0
21	5484	0.049	2
21	5486	0.049	1
21	5487	0.049	0
21	5598	0.05	2
21	5599	0.05	1
21	5600	0.05	0
21	5710	0.051	2
21	5712	0.051	1
21	5713	0.051	0
21	5824	0.052	1
21	5826	0.052	0
21	5936	0.053	2
21	5937	0.053	1
21	5938	0.053	0
21	6049	0.054	2
21	6051	0.054	1
21	6052	0.054	0
21	6160	0.055	1
21	6162	0.055	0
21	6272	0.056	2
21	6273	0.056	1
21	6274	0.056	0
21	6390	0.057	2
21	6392	0.057	1
21	6393	0.057	0
21	6497	0.058	1
21	6499	0.058	0
21	6610	0.059	2
21	6611	0.059	1
21	6612	0.059	0
21	6728	0.06	2
21	6730	0.06	1
21	6731	0.06	0
21	6838	0.061	1
21	6840	0.061	0
21	6949	0.062	2
21	6950	0.062	1
21	6951	0.062	0
21	7063	0.063	2
21	7065	0.063	1
21	7066	0.063	0
21	7178	0.064	1
21	7180	0.064	0
21	7288	0.065	2
21	7289	0.065	1
21	7290	0.065	0
21	7400	0.066	2
21	7402	0.066	1
21	7403	0.066	0
21	7515	0.067	1
21	7517	0.067	0
21	7627	0.068	2
21	7628	0.068	1
21	7629	0.068	0
21	7738	0.069	2
21	7740	0.069	1
21	7741	0.069	0
21	7854	0.07	2
21	7856	0.07	1
21	7857	0.07	0
21	7968	0.071	1
21	7969	0.071	0
21	8078	0.072	2
21	8080	0.072	1
21	8081	0.072	0
21	8192	0.073	2
21	8194	0.073	1
21	8195	0.073	0
21	8305	0.074	1
21	8306	0.074	0
21	8415	0.075	2
21	8417	0.075	1
21	8418	0.075	0
21	8531	0.076	2
21	8533	0.076	1
21	8534	0.076	0
21	8641	0.077	1
21	8642	0.077	0
21	8753	0.078	2
21	8755	0.078	1
21	8756	0.078	0
21	8873	0.079	2
21	8875	0.079	1
21	8876	0.079	0
21	8982	0.08	1
21	8983	0.08	0
21	9091	0.081	2
21	9093	0.081	1
21	9094	0.081	0
21	9210	0.082	2
21	9212	0.082	1
21	9213	0.082	0
21	9321	0.083	1
21	9322	0.083	0
21	9431	0.084	2
21	9433	0.084	1
21	9434	0.084	0
21	9548	0.085	2
21	9550	0.085	1
21	9551	0.085	0
21	9662	0.086	2
21	9663	0.086	1
21	9664	0.086	0
21	9769	0.087	1
21	9771	0.087	0
21	9882	0.088	2
21	9884	0.088	1
21	9885	0.088	0
21	10000	0.089	2
22	73	0.001	0.000624728975
22	74	0.001	0.00024945795
22	75	0.001	0.000632574288
22	76	0.001	0.000265148576
22	77	0.001	0.000613063607
22	78	0.001	0.000226127214
22	79	0.001	0.00062792821
22	80	0.001	0.00025585642
22	81	0.001	0.00061233402
22	82	0.001	0.00022466804
22	83	0.001	0.0006256049
22	84	0.001	0.0002512098
22	85	0.001	0.000613262727
22	86	0.001	0.000226525454
22	87	0.001	0.000620545651
22	88	0.001	0.000241091302
22	89	0.001	0.000626014507
22	90	0.001	0.000252029014
22	91	0.001	0.000627775302
22	92	0.001	0.000255550604
22	187	0.002	0.000874186925
22	188	0.002	0.0004989159
22	189	0.002	0.000123644875
22	190	0.002	0.000897722864
22	191	0.002	0.000530297152
22	192	0.002	0.00016287144
22	193	0.002	0.000839190821
22	194	0.002	0.000452254428
22	195	0.002	6.5318035e-005
22	196	0.002	0.00088378463
22	197	0.002	0.00051171284
22	198	0.002	0.00013964105
22	199	0.002	0.00083700206
22	200	0.002	0.00044933608
22	201	0.002	6.16701e-005
22	202	0.002	0.0008768147
22	203	0.002	0.0005024196
22	204	0.002	0.0001280245
22	205	0.002	0.000839788181
22	206	0.002	0.000453050908
22	207	0.002	6.6313635e-005
22	208	0.002	0.000861636953
22	209	0.002	0.000482182604
22	210	0.002	0.000102728255
22	211	0.002	0.000878043521
22	212	0.002	0.000504058028
22	213	0.002	0.000883325906
22	214	0.002	0.000130072535
22	215	0.002	0.000511101208
22	216	0.002	0.00013887651
22	301	0.003	0.00074837385
22	302	0.003	0.000373102825
22	303	0.003	0.000795445728
22	304	0.003	0.000428020016
22	305	0.003	6.0594304e-005
22	306	0.003	0.000678381642
22	307	0.003	0.000291445249
22	308	0.003	0.00076756926
22	309	0.003	0.00039549747
22	310	0.003	2.342568e-005
22	311	0.003	0.00067400412
22	312	0.003	0.00028633814
22	313	0.003	0.0007536294
22	314	0.003	0.0003792343
22	315	0.003	4.8392e-006
22	316	0.003	0.000679576362
22	317	0.003	0.000292839089
22	318	0.003	0.000723273906
22	319	0.003	0.000343819557
22	320	0.003	0.000756087042
22	321	0.003	0.000382101549
22	322	0.003	0.000766651812
22	323	0.003	8.116056e-006
22	324	0.003	0.000394427114
22	325	0.003	2.2202416e-005
22	408	0.004	0.0009978318
22	409	0.004	0.000622560775
22	410	0.004	0.00024728975
22	411	0.004	0.000693168592
22	412	0.004	0.00032574288
22	413	0.004	0.000904508856
22	414	0.004	0.000517572463
22	415	0.004	0.00013063607
22	416	0.004	0.00065135389
22	417	0.004	0.0002792821
22	418	0.004	0.00089867216
22	419	0.004	0.00051100618
22	420	0.004	0.0001233402
22	421	0.004	0.0006304441
22	422	0.004	0.000256049
22	423	0.004	0.000906101816
22	424	0.004	0.000519364543
22	425	0.004	0.00013262727
22	426	0.004	0.000964365208
22	427	0.004	0.000584910859
22	428	0.004	0.00020545651
22	429	0.004	0.000634130563
22	430	0.004	0.00026014507
22	431	0.004	0.000649977718
22	432	0.004	0.00027775302
22	521	0.005	0.000872018725
22	522	0.005	0.0004967477
22	523	0.005	0.000121476675
22	524	0.005	0.000958317168
22	525	0.005	0.000590891456
22	526	0.005	0.000223465744
22	527	0.005	0.000743699677
22	528	0.005	0.000356763284
22	529	0.005	0.00090721031
22	530	0.005	0.00053513852
22	531	0.005	0.00016306673
22	532	0.005	0.00073567422
22	533	0.005	0.00034800824
22	534	0.005	0.0008816539
22	535	0.005	0.0005072588
22	536	0.005	0.0001328637
22	537	0.005	0.000745889997
22	538	0.005	0.000359152724
22	539	0.005	0.000826002161
22	540	0.005	0.000446547812
22	541	0.005	6.7093463e-005
22	542	0.005	0.000886159577
22	543	0.005	0.000512174084
22	544	0.005	0.000905528322
22	545	0.005	0.000138188591
22	546	0.005	0.000533303624
22	547	0.005	0.000161078926
22	638	0.006	0.00074620565
22	639	0.006	0.000370934625
22	640	0.006	0.000856040032
22	641	0.006	0.00048861432
22	642	0.006	0.000121188608
22	643	0.006	0.000969826891
22	644	0.006	0.000582890498
22	645	0.006	0.000195954105
22	646	0.006	0.00079099494
22	647	0.006	0.00041892315
22	648	0.006	4.685136e-005
22	649	0.006	0.00096034226
22	650	0.006	0.00057267628
22	651	0.006	0.0001850103
22	652	0.006	0.0007584686
22	653	0.006	0.0003840735
22	654	0.006	9.6784e-006
22	655	0.006	0.000972415451
22	656	0.006	0.000585678178
22	657	0.006	0.000198940905
22	658	0.006	0.000687639114
22	659	0.006	0.000308184765
22	660	0.006	0.000764203098
22	661	0.006	0.000390217605
22	662	0.006	0.000788854228
22	663	0.006	1.6232112e-005
22	664	0.006	0.00041662953
22	665	0.006	4.4404832e-005
22	750	0.007	0.0009956636
22	751	0.007	0.000620392575
22	752	0.007	0.00024512155
22	753	0.007	0.000753762896
22	754	0.007	0.000386337184
22	755	0.007	1.8911472e-005
22	756	0.007	0.000809017712
22	757	0.007	0.000422081319
22	758	0.007	3.5144926e-005
22	759	0.007	0.00067477957
22	760	0.007	0.00030270778
22	761	0.007	0.00079734432
22	762	0.007	0.00040967834
22	763	0.007	2.201236e-005
22	764	0.007	0.0006352833
22	765	0.007	0.0002608882
22	766	0.007	0.000812203632
22	767	0.007	0.000425466359
22	768	0.007	3.8729086e-005
22	769	0.007	0.000928730416
22	770	0.007	0.000549276067
22	771	0.007	0.000169821718
22	772	0.007	0.000642246619
22	773	0.007	0.000268261126
22	774	0.007	0.000672180134
22	775	0.007	0.000299955436
22	862	0.008	0.000869850525
22	863	0.008	0.0004945795
22	864	0.008	0.000119308475
22	865	0.008	0.00065148576
22	866	0.008	0.000284060048
22	867	0.008	0.000648208533
22	868	0.008	0.00026127214
22	869	0.008	0.00093063599
22	870	0.008	0.0005585642
22	871	0.008	0.00018649241
22	872	0.008	0.00063434638
22	873	0.008	0.0002466804
22	874	0.008	0.0008864931
22	875	0.008	0.000512098
22	876	0.008	0.0001377029
22	877	0.008	0.000651991813
22	878	0.008	0.00026525454
22	879	0.008	0.000790367369
22	880	0.008	0.00041091302
22	881	0.008	3.1458671e-005
22	882	0.008	0.000894275633
22	883	0.008	0.00052029014
22	884	0.008	0.000927730738
22	885	0.008	0.000146304647
22	886	0.008	0.00055550604
22	887	0.008	0.000183281342
22	978	0.009	0.00074403745
22	979	0.009	0.000368766425
22	980	0.009	0.000916634336
22	981	0.009	0.000549208624
22	982	0.009	0.000181782912
22	983	0.009	0.000874335747
22	984	0.009	0.000487399354
22	985	0.009	0.000100462961
22	986	0.009	0.00081442062
22	987	0.009	0.00044234883
22	988	0.009	7.027704e-005
22	989	0.009	0.00085901442
22	990	0.009	0.00047134844
22	991	0.009	8.368246e-005
22	992	0.009	0.0007633078
22	993	0.009	0.0003889127
22	994	0.009	1.45176e-005
22	995	0.009	0.000878517267
22	996	0.009	0.000491779994
22	997	0.009	0.000105042721
22	998	0.009	0.000652004322
22	999	0.009	0.000272549973
22	1000	0.009	0.000772319154
22	1001	0.009	0.000398333661
22	1002	0.009	0.000811056644
22	1003	0.009	2.4348168e-005
22	1004	0.009	0.000438831946
22	1005	0.009	6.6607248e-005
22	1084	0.01	0.0009934954
22	1085	0.01	0.000618224375
22	1086	0.01	0.00024295335
22	1087	0.01	0.0008143572
22	1088	0.01	0.000446931488
22	1089	0.01	7.9505776e-005
22	1090	0.01	0.000713526568
22	1091	0.01	0.000326590175
22	1092	0.01	0.00069820525
22	1093	0.01	0.00032613346
22	1094	0.01	0.00069601648
22	1095	0.01	0.0003083505
22	1096	0.01	0.0006401225
22	1097	0.01	0.0002657274
22	1098	0.01	0.000718305448
22	1099	0.01	0.000331568175
22	1100	0.01	0.000893095624
22	1101	0.01	0.000513641275
22	1102	0.01	0.000134186926
22	1103	0.01	0.000650362675
22	1104	0.01	0.000276377182
22	1105	0.01	0.00069438255
22	1106	0.01	0.000322157852
22	1197	0.011	0.000867682325
22	1198	0.011	0.0004924113
22	1199	0.011	0.000117140275
22	1200	0.011	0.000712080064
22	1201	0.011	0.000344654352
22	1202	0.011	0.000939653782
22	1203	0.011	0.000552717389
22	1204	0.011	0.000165780996
22	1205	0.011	0.00095406167
22	1206	0.011	0.00058198988
22	1207	0.011	0.00020991809
22	1208	0.011	0.00092068452
22	1209	0.011	0.00053301854
22	1210	0.011	0.00014535256
22	1211	0.011	0.0008913323
22	1212	0.011	0.0005169372
22	1213	0.011	0.0001425421
22	1214	0.011	0.000944830902
22	1215	0.011	0.000558093629
22	1216	0.011	0.000171356356
22	1217	0.011	0.000754732577
22	1218	0.011	0.000375278228
22	1219	0.011	0.000902391689
22	1220	0.011	0.000528406196
22	1221	0.011	0.000949933154
22	1222	0.011	0.000154420703
22	1223	0.011	0.000577708456
22	1224	0.011	0.000205483758
22	1315	0.012	0.00074186925
22	1316	0.012	0.000366598225
22	1317	0.012	0.00097722864
22	1318	0.012	0.000609802928
22	1319	0.012	0.000242377216
22	1320	0.012	0.000778844603
22	1321	0.012	0.00039190821
22	1322	0.012	4.971817e-006
22	1323	0.012	0.0008378463
22	1324	0.012	0.00046577451
22	1325	0.012	9.370272e-005
22	1326	0.012	0.00075768658
22	1327	0.012	0.0003700206
22	1328	0.012	0.000768147
22	1329	0.012	0.0003937519
22	1330	0.012	1.93568e-005
22	1331	0.012	0.000784619083
22	1332	0.012	0.00039788181
22	1333	0.012	1.1144537e-005
22	1334	0.012	0.000995823879
22	1335	0.012	0.00061636953
22	1336	0.012	0.000236915181
22	1337	0.012	0.00078043521
22	1338	0.012	0.000406449717
22	1339	0.012	0.00083325906
22	1340	0.012	3.2464224e-005
22	1341	0.012	0.000461034362
22	1342	0.012	8.8809664e-005
22	1423	0.013	0.0009913272
22	1424	0.013	0.000616056175
22	1425	0.013	0.00024078515
22	1426	0.013	0.000874951504
22	1427	0.013	0.000507525792
22	1428	0.013	0.00014010008
22	1429	0.013	0.000618035424
22	1430	0.013	0.000231099031
22	1431	0.013	0.00072163093
22	1432	0.013	0.00034955914
22	1433	0.013	0.00098235462
22	1434	0.013	0.00059468864
22	1435	0.013	0.00020702266
22	1436	0.013	0.0006449617
22	1437	0.013	0.0002705666
22	1438	0.013	0.000624407264
22	1439	0.013	0.000237669991
22	1440	0.013	0.000857460832
22	1441	0.013	0.000478006483
22	1442	0.013	9.8552134e-005
22	1443	0.013	0.000658478731
22	1444	0.013	0.000284493238
22	1445	0.013	0.000716584966
22	1446	0.013	0.000344360268
22	1539	0.014	0.000865514125
22	1540	0.014	0.0004902431
22	1541	0.014	0.000114972075
22	1542	0.014	0.000772674368
22	1543	0.014	0.000405248656
22	1544	0.014	3.7822944e-005
22	1545	0.014	0.000844162638
22	1546	0.014	0.000457226245
22	1547	0.014	7.0289852e-005
22	1548	0.014	0.00097748735
22	1549	0.014	0.00060541556
22	1550	0.014	0.00023334377
22	1551	0.014	0.00081935668
22	1552	0.014	0.0004316907
22	1553	0.014	4.402472e-005
22	1554	0.014	0.0008961715
22	1555	0.014	0.0005217764
22	1556	0.014	0.0001473813
22	1557	0.014	0.000850932718
22	1558	0.014	0.000464195445
22	1559	0.014	7.7458172e-005
22	1560	0.014	0.000719097785
22	1561	0.014	0.000339643436
22	1562	0.014	0.000910507745
22	1563	0.014	0.000536522252
22	1564	0.014	0.00097213557
22	1565	0.014	0.000162536759
22	1566	0.014	0.000599910872
22	1567	0.014	0.000227686174
22	1652	0.015	0.00073970105
22	1653	0.015	0.000364430025
22	1654	0.015	0.000670397232
22	1655	0.015	0.00030297152
22	1656	0.015	0.000683353459
22	1657	0.015	0.000296417066
22	1658	0.015	0.00086127198
22	1659	0.015	0.00048920019
22	1660	0.015	0.0001171284
22	1661	0.015	0.00065635874
22	1662	0.015	0.00026869276
22	1663	0.015	0.0007729862
22	1664	0.015	0.0003985911
22	1665	0.015	2.4196e-005
22	1666	0.015	0.000690720899
22	1667	0.015	0.000303983626
22	1668	0.015	0.000960189087
22	1669	0.015	0.000580734738
22	1670	0.015	0.000201280389
22	1671	0.015	0.000788551266
22	1672	0.015	0.000414565773
22	1673	0.015	0.000855461476
22	1674	0.015	4.058028e-005
22	1675	0.015	0.000483236778
22	1676	0.015	0.00011101208
22	1763	0.016	0.000989159
22	1764	0.016	0.000613887975
22	1765	0.016	0.00023861695
22	1766	0.016	0.000935545808
22	1767	0.016	0.000568120096
22	1768	0.016	0.000200694384
22	1769	0.016	0.000909480673
22	1770	0.016	0.00052254428
22	1771	0.016	0.000135607887
22	1772	0.016	0.00074505661
22	1773	0.016	0.00037298482
22	1774	0.016	9.1303e-007
22	1775	0.016	0.00088102678
22	1776	0.016	0.0004933608
22	1777	0.016	0.00010569482
22	1778	0.016	0.0006498009
22	1779	0.016	0.0002754058
22	1780	0.016	0.000917246353
22	1781	0.016	0.00053050908
22	1782	0.016	0.000143771807
22	1783	0.016	0.00082182604
22	1784	0.016	0.000442371691
22	1785	0.016	6.2917342e-005
22	1786	0.016	0.000666594787
22	1787	0.016	0.000292609294
22	1788	0.016	0.000738787382
22	1789	0.016	0.000366562684
22	1874	0.017	0.000863345925
22	1875	0.017	0.0004880749
22	1876	0.017	0.000112803875
22	1877	0.017	0.000833268672
22	1878	0.017	0.00046584296
22	1879	0.017	9.8417248e-005
22	1880	0.017	0.000748671494
22	1881	0.017	0.000361735101
22	1882	0.017	0.00062884124
22	1883	0.017	0.00025676945
22	1884	0.017	0.00071802884
22	1885	0.017	0.00033036286
22	1886	0.017	0.0009010107
22	1887	0.017	0.0005266156
22	1888	0.017	0.0001522205
22	1889	0.017	0.000757034534
22	1890	0.017	0.000370297261
22	1891	0.017	0.000683462993
22	1892	0.017	0.000304008644
22	1893	0.017	0.000918623801
22	1894	0.017	0.000544638308
22	1895	0.017	0.000994337986
22	1896	0.017	0.000170652815
22	1897	0.017	0.000622113288
22	1898	0.017	0.00024988859
22	1989	0.018	0.00073753285
22	1990	0.018	0.000362261825
22	1991	0.018	0.000730991536
22	1992	0.018	0.000363565824
22	1993	0.018	0.000974798708
22	1994	0.018	0.000587862315
22	1995	0.018	0.000200925922
22	1996	0.018	0.00088469766
22	1997	0.018	0.00051262587
22	1998	0.018	0.00014055408
22	1999	0.018	0.00094269688
22	2000	0.018	0.0005550309
22	2001	0.018	0.00016736492
22	2002	0.018	0.0007778254
22	2003	0.018	0.0004034303
22	2004	0.018	2.90352e-005
22	2005	0.018	0.000983559988
22	2006	0.018	0.000596822715
22	2007	0.018	0.000210085442
22	2008	0.018	0.000924554295
22	2009	0.018	0.000545099946
22	2010	0.018	0.000165645597
22	2011	0.018	0.000796667322
22	2012	0.018	0.000422681829
22	2013	0.018	0.000877663892
22	2014	0.018	4.8696336e-005
22	2015	0.018	0.000505439194
22	2016	0.018	0.000133214496
22	2106	0.019	0.0009869908
22	2107	0.019	0.000611719775
22	2108	0.019	0.00023644875
22	2109	0.019	0.000996140112
22	2110	0.019	0.0006287144
22	2111	0.019	0.000261288688
22	2112	0.019	0.000813989529
22	2113	0.019	0.000427053136
22	2114	0.019	4.0116743e-005
22	2115	0.019	0.00076848229
22	2116	0.019	0.0003964105
22	2117	0.019	2.433871e-005
22	2118	0.019	0.00077969894
22	2119	0.019	0.00039203296
22	2120	0.019	4.36698e-006
22	2121	0.019	0.0006546401
22	2122	0.019	0.000280245
22	2123	0.019	0.000823348169
22	2124	0.019	0.000436610896
22	2125	0.019	4.9873623e-005
22	2126	0.019	0.000786191248
22	2127	0.019	0.000406736899
22	2128	0.019	2.728255e-005
22	2129	0.019	0.000674710843
22	2130	0.019	0.00030072535
22	2131	0.019	0.000760989798
22	2132	0.019	0.0003887651
22	2133	0.019	1.6540402e-005
22	2215	0.02	0.000861177725
22	2216	0.02	0.0004859067
22	2217	0.02	0.000110635675
22	2218	0.02	0.000893862976
22	2219	0.02	0.000526437264
22	2220	0.02	0.000159011552
22	2221	0.02	0.00065318035
22	2222	0.02	0.000266243957
22	2223	0.02	0.00065226692
22	2224	0.02	0.00028019513
22	2225	0.02	0.000616701
22	2226	0.02	0.00022903502
22	2227	0.02	0.0009058499
22	2228	0.02	0.0005314548
22	2229	0.02	0.0001570597
22	2230	0.02	0.00066313635
22	2231	0.02	0.000276399077
22	2232	0.02	0.000647828201
22	2233	0.02	0.000268373852
22	2234	0.02	0.000926739857
22	2235	0.02	0.000552754364
22	2236	0.02	0.000644315704
22	2237	0.02	0.000178768871
22	2238	0.02	0.000272091006
22	2331	0.021	0.00073536465
22	2332	0.021	0.000360093625
22	2333	0.021	0.00079158584
22	2334	0.021	0.000424160128
22	2335	0.021	5.6734416e-005
22	2336	0.021	0.000879307564
22	2337	0.021	0.000492371171
22	2338	0.021	0.000105434778
22	2339	0.021	0.00090812334
22	2340	0.021	0.00053605155
22	2341	0.021	0.00016397976
22	2342	0.021	0.00084136904
22	2343	0.021	0.00045370306
22	2344	0.021	6.603708e-005
22	2345	0.021	0.0007826646
22	2346	0.021	0.0004082695
22	2347	0.021	3.38744e-005
22	2348	0.021	0.000889661804
22	2349	0.021	0.000502924531
22	2350	0.021	0.000116187258
22	2351	0.021	0.000888919503
22	2352	0.021	0.000509465154
22	2353	0.021	0.000130010805
22	2354	0.021	0.000804783378
22	2355	0.021	0.000430797885
22	2356	0.021	0.000899866308
22	2357	0.021	5.6812392e-005
22	2358	0.021	0.00052764161
22	2359	0.021	0.000155416912
22	2439	0.022	0.0009848226
22	2440	0.022	0.000609551575
22	2441	0.022	0.00023428055
22	2442	0.022	0.000689308704
22	2443	0.022	0.000321882992
22	2444	0.022	0.000718498385
22	2445	0.022	0.000331561992
22	2446	0.022	0.00079190797
22	2447	0.022	0.00041983618
22	2448	0.022	4.776439e-005
22	2449	0.022	0.0006783711
22	2450	0.022	0.00029070512
22	2451	0.022	0.0006594793
22	2452	0.022	0.0002850842
22	2453	0.022	0.000729449985
22	2454	0.022	0.000342712712
22	2455	0.022	0.000750556456
22	2456	0.022	0.000371102107
22	2457	0.022	0.000682826899
22	2458	0.022	0.000308841406
22	2459	0.022	0.000783192214
22	2460	0.022	0.000410967516
22	2461	0.022	3.8742818e-005
22	2551	0.023	0.000859009525
22	2552	0.023	0.0004837385
22	2553	0.023	0.000108467475
22	2554	0.023	0.00095445728
22	2555	0.023	0.000587031568
22	2556	0.023	0.000219605856
22	2557	0.023	0.000944625599
22	2558	0.023	0.000557689206
22	2559	0.023	0.000170752813
22	2560	0.023	0.0006756926
22	2561	0.023	0.00030362081
22	2562	0.023	0.00090303914
22	2563	0.023	0.00051537316
22	2564	0.023	0.00012770718
22	2565	0.023	0.0009106891
22	2566	0.023	0.000536294
22	2567	0.023	0.0001618989
22	2568	0.023	0.000955975439
22	2569	0.023	0.000569238166
22	2570	0.023	0.000182500893
22	2571	0.023	0.000991647758
22	2572	0.023	0.000612193409
22	2573	0.023	0.00023273906
22	2574	0.023	0.000934855913
22	2575	0.023	0.00056087042
22	2576	0.023	0.00066651812
22	2577	0.023	0.000186884927
22	2578	0.023	0.000294293422
22	2669	0.024	0.00073319645
22	2670	0.024	0.000357925425
22	2671	0.024	0.000852180144
22	2672	0.024	0.000484754432
22	2673	0.024	0.00011732872
22	2674	0.024	0.00078381642
22	2675	0.024	0.000396880027
22	2676	0.024	9.943634e-006
22	2677	0.024	0.00093154902
22	2678	0.024	0.00055947723
22	2679	0.024	0.00018740544
22	2680	0.024	0.0007400412
22	2681	0.024	0.00035237522
22	2682	0.024	0.0007875038
22	2683	0.024	0.0004131087
22	2684	0.024	3.87136e-005
22	2685	0.024	0.00079576362
22	2686	0.024	0.000409026347
22	2687	0.024	2.2289074e-005
22	2688	0.024	0.000853284711
22	2689	0.024	0.000473830362
22	2690	0.024	9.4376013e-005
22	2691	0.024	0.000812899434
22	2692	0.024	0.000438913941
22	2693	0.024	0.000922068724
22	2694	0.024	6.4928448e-005
22	2695	0.024	0.000549844026
22	2696	0.024	0.000177619328
22	2780	0.025	0.0009826544
22	2781	0.025	0.000607383375
22	2782	0.025	0.00023211235
22	2783	0.025	0.000749903008
22	2784	0.025	0.000382477296
22	2785	0.025	1.5051584e-005
22	2786	0.025	0.000623007241
22	2787	0.025	0.000236070848
22	2788	0.025	0.00081533365
22	2789	0.025	0.00044326186
22	2790	0.025	7.119007e-005
22	2791	0.025	0.00096470924
22	2792	0.025	0.00057704326
22	2793	0.025	0.00018937728
22	2794	0.025	0.0006643185
22	2795	0.025	0.0002899234
22	2796	0.025	0.000635551801
22	2797	0.025	0.000248814528
22	2798	0.025	0.000714921664
22	2799	0.025	0.000335467315
22	2800	0.025	0.000690942955
22	2801	0.025	0.000316957462
22	2802	0.025	0.00080539463
22	2803	0.025	0.000433169932
22	2804	0.025	6.0945234e-005
22	2892	0.026	0.000856841325
22	2893	0.026	0.0004815703
22	2894	0.026	0.000106299275
22	2895	0.026	0.000647625872
22	2896	0.026	0.00028020016
22	2897	0.026	0.000849134455
22	2898	0.026	0.000462198062
22	2899	0.026	7.5261669e-005
22	2900	0.026	0.00069911828
22	2901	0.026	0.00032704649
22	2902	0.026	0.0008017113
22	2903	0.026	0.00041404532
22	2904	0.026	2.637934e-005
22	2905	0.026	0.0009155283
22	2906	0.026	0.0005411332
22	2907	0.026	0.0001667381
22	2908	0.026	0.000862077255
22	2909	0.026	0.000475339982
22	2910	0.026	8.8602709e-005
22	2911	0.026	0.000956012966
22	2912	0.026	0.000576558617
22	2913	0.026	0.000197104268
22	2914	0.026	0.000942971969
22	2915	0.026	0.000568986476
22	2916	0.026	0.000688720536
22	2917	0.026	0.000195000983
22	2918	0.026	0.000316495838
22	3005	0.027	0.00073102825
22	3006	0.027	0.000355757225
22	3007	0.027	0.000912774448
22	3008	0.027	0.000545348736
22	3009	0.027	0.000177923024
22	3010	0.027	0.000688325276
22	3011	0.027	0.000301388883
22	3012	0.027	0.0009549747
22	3013	0.027	0.00058290291
22	3014	0.027	0.00021083112
22	3015	0.027	0.00063871336
22	3016	0.027	0.00025104738
22	3017	0.027	0.000792343
22	3018	0.027	0.0004179479
22	3019	0.027	4.35528e-005
22	3020	0.027	0.000701865436
22	3021	0.027	0.000315128163
22	3022	0.027	0.000817649919
22	3023	0.027	0.00043819557
22	3024	0.027	5.8741221e-005
22	3025	0.027	0.00082101549
22	3026	0.027	0.000447029997
22	3027	0.027	0.00094427114
22	3028	0.027	7.3044504e-005
22	3029	0.027	0.000572046442
22	3030	0.027	0.000199821744
22	3118	0.028	0.0009804862
22	3119	0.028	0.000605215175
22	3120	0.028	0.00022994415
22	3121	0.028	0.000810497312
22	3122	0.028	0.0004430716
22	3123	0.028	7.5645888e-005
22	3124	0.028	0.00091445249
22	3125	0.028	0.000527516097
22	3126	0.028	0.000140579704
22	3127	0.028	0.00083875933
22	3128	0.028	0.00046668754
22	3129	0.028	9.461575e-005
22	3130	0.028	0.0008633814
22	3131	0.028	0.00047571542
22	3132	0.028	8.804944e-005
22	3133	0.028	0.0006691577
22	3134	0.028	0.0002947626
22	3135	0.028	0.00092839089
22	3136	0.028	0.000541653617
22	3137	0.028	0.000154916344
22	3138	0.028	0.000679286872
22	3139	0.028	0.000299832523
22	3140	0.028	0.000699059011
22	3141	0.028	0.000325073518
22	3142	0.028	0.000827597046
22	3143	0.028	0.000455372348
22	3144	0.028	8.314765e-005
22	3226	0.029	0.000854673125
22	3227	0.029	0.0004794021
22	3228	0.029	0.000104131075
22	3229	0.029	0.000708220176
22	3230	0.029	0.000340794464
22	3231	0.029	0.000753643311
22	3232	0.029	0.000366706918
22	3233	0.029	0.00072254396
22	3234	0.029	0.00035047217
22	3235	0.029	0.00070038346
22	3236	0.029	0.00031271748
22	3237	0.029	0.0009203675
22	3238	0.029	0.0005459724
22	3239	0.029	0.0001715773
22	3240	0.029	0.000768179071
22	3241	0.029	0.000381441798
22	3242	0.029	0.000920378174
22	3243	0.029	0.000540923825
22	3244	0.029	0.000161469476
22	3245	0.029	0.000951088025
22	3246	0.029	0.000577102532
22	3247	0.029	0.000710922952
22	3248	0.029	0.000203117039
22	3249	0.029	0.000338698254
22	3342	0.03	0.00072886005
22	3343	0.03	0.000353589025
22	3344	0.03	0.000973368752
22	3345	0.03	0.00060594304
22	3346	0.03	0.000238517328
22	3347	0.03	0.000979770525
22	3348	0.03	0.000592834132
22	3349	0.03	0.000205897739
22	3350	0.03	0.00097840038
22	3351	0.03	0.00060632859
22	3352	0.03	0.0002342568
22	3353	0.03	0.0009250515
22	3354	0.03	0.00053738552
22	3355	0.03	0.00014971954
22	3356	0.03	0.0007971822
22	3357	0.03	0.0004227871
22	3358	0.03	4.8392e-005
22	3359	0.03	0.000994704525
22	3360	0.03	0.000607967252
22	3361	0.03	0.000221229979
22	3362	0.03	0.000782015127
22	3363	0.03	0.000402560778
22	3364	0.03	2.3106429e-005
22	3365	0.03	0.000829131546
22	3366	0.03	0.000455146053
22	3367	0.03	0.000966473556
22	3368	0.03	8.116056e-005
22	3369	0.03	0.000594248858
22	3370	0.03	0.00022202416
22	3456	0.031	0.000978318
22	3457	0.031	0.000603046975
22	3458	0.031	0.00022777595
22	3459	0.031	0.000871091616
22	3460	0.031	0.000503665904
22	3461	0.031	0.000136240192
22	3462	0.031	0.000818961346
22	3463	0.031	0.000432024953
22	3464	0.031	4.508856e-005
22	3465	0.031	0.00086218501
22	3466	0.031	0.00049011322
22	3467	0.031	0.00011804143
22	3468	0.031	0.00076205356
22	3469	0.031	0.00037438758
22	3470	0.031	0.0006739969
22	3471	0.031	0.0002996018
22	3472	0.031	0.000834492706
22	3473	0.031	0.000447755433
22	3474	0.031	6.101816e-005
22	3475	0.031	0.00064365208
22	3476	0.031	0.000264197731
22	3477	0.031	0.000707175067
22	3478	0.031	0.000333189574
22	3479	0.031	0.000849799462
22	3480	0.031	0.000477574764
22	3481	0.031	0.000105350066
22	3569	0.032	0.000852504925
22	3570	0.032	0.0004772339
22	3571	0.032	0.000101962875
22	3572	0.032	0.00076881448
22	3573	0.032	0.000401388768
22	3574	0.032	3.3963056e-005
22	3575	0.032	0.000658152167
22	3576	0.032	0.000271215774
22	3577	0.032	0.00074596964
22	3578	0.032	0.00037389785
22	3579	0.032	1.82606e-006
22	3580	0.032	0.0009867216
22	3581	0.032	0.00059905562
22	3582	0.032	0.00021138964
22	3583	0.032	0.0009252067
22	3584	0.032	0.0005508116
22	3585	0.032	0.0001764165
22	3586	0.032	0.000674280887
22	3587	0.032	0.000287543614
22	3588	0.032	0.000884743382
22	3589	0.032	0.000505289033
22	3590	0.032	0.000125834684
22	3591	0.032	0.000959204081
22	3592	0.032	0.000585218588
22	3593	0.032	0.000733125368
22	3594	0.032	0.000211233095
22	3595	0.032	0.00036090067
22	3682	0.033	0.00072669185
22	3683	0.033	0.000351420825
22	3684	0.033	0.000666537344
22	3685	0.033	0.000299111632
22	3686	0.033	0.000884279381
22	3687	0.033	0.000497342988
22	3688	0.033	0.000110406595
22	3689	0.033	0.00062975427
22	3690	0.033	0.00025768248
22	3691	0.033	0.00082372366
22	3692	0.033	0.00043605768
22	3693	0.033	4.83917e-005
22	3694	0.033	0.0008020214
22	3695	0.033	0.0004276263
22	3696	0.033	5.32312e-005
22	3697	0.033	0.000900806341
22	3698	0.033	0.000514069068
22	3699	0.033	0.000127331795
22	3700	0.033	0.000746380335
22	3701	0.033	0.000366925986
22	3702	0.033	0.000837247602
22	3703	0.033	0.000463262109
22	3704	0.033	0.000988675972
22	3705	0.033	8.9276616e-005
22	3706	0.033	0.000616451274
22	3707	0.033	0.000244226576
22	3791	0.034	0.0009761498
22	3792	0.034	0.000600878775
22	3793	0.034	0.00022560775
22	3794	0.034	0.00093168592
22	3795	0.034	0.000564260208
22	3796	0.034	0.000196834496
22	3797	0.034	0.000723470202
22	3798	0.034	0.000336533809
22	3799	0.034	0.00088561069
22	3800	0.034	0.0005135389
22	3801	0.034	0.00014146711
22	3802	0.034	0.00066072572
22	3803	0.034	0.00027305974
22	3804	0.034	0.0006788361
22	3805	0.034	0.000304441
22	3806	0.034	0.000740594522
22	3807	0.034	0.000353857249
22	3808	0.034	0.000987471637
22	3809	0.034	0.000608017288
22	3810	0.034	0.000228562939
22	3811	0.034	0.000715291123
22	3812	0.034	0.00034130563
22	3813	0.034	0.000872001878
22	3814	0.034	0.00049977718
22	3815	0.034	0.000127552482
22	3910	0.035	0.000850336725
22	3911	0.035	0.0004750657
22	3912	0.035	9.9794675e-005
22	3913	0.035	0.000829408784
22	3914	0.035	0.000461983072
22	3915	0.035	9.455736e-005
22	3916	0.035	0.000949597416
22	3917	0.035	0.000562661023
22	3918	0.035	0.00017572463
22	3919	0.035	0.00076939532
22	3920	0.035	0.00039732353
22	3921	0.035	2.525174e-005
22	3922	0.035	0.00088539376
22	3923	0.035	0.00049772778
22	3924	0.035	0.0001100618
22	3925	0.035	0.0009300459
22	3926	0.035	0.0005556508
22	3927	0.035	0.0001812557
22	3928	0.035	0.000967119976
22	3929	0.035	0.000580382703
22	3930	0.035	0.00019364543
22	3931	0.035	0.00084910859
22	3932	0.035	0.000469654241
22	3933	0.035	9.0199892e-005
22	3934	0.035	0.000967320137
22	3935	0.035	0.000593334644
22	3936	0.035	0.000755327784
22	3937	0.035	0.000219349151
22	3938	0.035	0.000383103086
22	3939	0.035	1.0878388e-005
22	4021	0.036	0.00072452365
22	4022	0.036	0.000349252625
22	4023	0.036	0.000727131648
22	4024	0.036	0.000359705936
22	4025	0.036	0.000788788237
22	4026	0.036	0.000401851844
22	4027	0.036	1.4915451e-005
22	4028	0.036	0.00065317995
22	4029	0.036	0.00028110816
22	4030	0.036	0.00072239582
22	4031	0.036	0.00033472984
22	4032	0.036	0.0008068606
22	4033	0.036	0.0004324655
22	4034	0.036	5.80704e-005
22	4035	0.036	0.000806908157
22	4036	0.036	0.000420170884
22	4037	0.036	3.3433611e-005
22	4038	0.036	0.000710745543
22	4039	0.036	0.000331291194
22	4040	0.036	0.000845363658
22	4041	0.036	0.000471378165
22	4042	0.036	0.00063865369
22	4043	0.036	9.7392672e-005
22	4044	0.036	0.000266428992
22	4130	0.037	0.0009739816
22	4131	0.037	0.000598710575
22	4132	0.037	0.00022343955
22	4133	0.037	0.000992280224
22	4134	0.037	0.000624854512
22	4135	0.037	0.0002574288
22	4136	0.037	0.000627979058
22	4137	0.037	0.000241042665
22	4138	0.037	0.00090903637
22	4139	0.037	0.00053696458
22	4140	0.037	0.00016489279
22	4141	0.037	0.00094706386
22	4142	0.037	0.00055939788
22	4143	0.037	0.0001717319
22	4144	0.037	0.0006836753
22	4145	0.037	0.0003092802
22	4146	0.037	0.000646696338
22	4147	0.037	0.000259959065
22	4148	0.037	0.000951836845
22	4149	0.037	0.000572382496
22	4150	0.037	0.000192928147
22	4151	0.037	0.000723407179
22	4152	0.037	0.000349421686
22	4153	0.037	0.000894204294
22	4154	0.037	0.000521979596
22	4155	0.037	0.000149754898
22	4250	0.038	0.000848168525
22	4251	0.038	0.0004728975
22	4252	0.038	9.7626475e-005
22	4253	0.038	0.000890003088
22	4254	0.038	0.000522577376
22	4255	0.038	0.000155151664
22	4256	0.038	0.000854106272
22	4257	0.038	0.000467169879
22	4258	0.038	8.0233486e-005
22	4259	0.038	0.000792821
22	4260	0.038	0.00042074921
22	4261	0.038	4.867742e-005
22	4262	0.038	0.00078406592
22	4263	0.038	0.00039639994
22	4264	0.038	8.73396e-006
22	4265	0.038	0.0009348851
22	4266	0.038	0.00056049
22	4267	0.038	0.0001860949
22	4268	0.038	0.000873221792
22	4269	0.038	0.000486484519
22	4270	0.038	9.9747246e-005
22	4271	0.038	0.000813473798
22	4272	0.038	0.000434019449
22	4273	0.038	5.45651e-005
22	4274	0.038	0.000975436193
22	4275	0.038	0.0006014507
22	4276	0.038	0.0007775302
22	4277	0.038	0.000227465207
22	4278	0.038	0.000405305502
22	4279	0.038	3.3080804e-005
22	4359	0.039	0.00072235545
22	4360	0.039	0.000347084425
22	4361	0.039	0.000787725952
22	4362	0.039	0.00042030024
22	4363	0.039	5.2874528e-005
22	4364	0.039	0.000693297093
22	4365	0.039	0.0003063607
22	4366	0.039	0.00067660563
22	4367	0.039	0.00030453384
22	4368	0.039	0.00062106798
22	4369	0.039	0.000233402
22	4370	0.039	0.0008116998
22	4371	0.039	0.0004373047
22	4372	0.039	6.29096e-005
22	4373	0.039	0.000713009973
22	4374	0.039	0.0003262727
22	4375	0.039	0.000675110751
22	4376	0.039	0.000295656402
22	4377	0.039	0.000853479714
22	4378	0.039	0.000479494221
22	4379	0.039	0.000660856106
22	4380	0.039	0.000105508728
22	4381	0.039	0.000288631408
22	4469	0.04	0.0009718134
22	4470	0.04	0.000596542375
22	4471	0.04	0.00022127135
22	4472	0.04	0.000685448816
22	4473	0.04	0.000318023104
22	4474	0.04	0.000919424307
22	4475	0.04	0.000532487914
22	4476	0.04	0.000145551521
22	4477	0.04	0.00093246205
22	4478	0.04	0.00056039026
22	4479	0.04	0.00018831847
22	4480	0.04	0.00084573602
22	4481	0.04	0.00045807004
22	4482	0.04	7.040406e-005
22	4483	0.04	0.0006885145
22	4484	0.04	0.0003141194
22	4485	0.04	0.000939535427
22	4486	0.04	0.000552798154
22	4487	0.04	0.000166060881
22	4488	0.04	0.000916202053
22	4489	0.04	0.000536747704
22	4490	0.04	0.000157293355
22	4491	0.04	0.000731523235
22	4492	0.04	0.000357537742
22	4493	0.04	0.00091640671
22	4494	0.04	0.000544182012
22	4495	0.04	0.000171957314
22	4586	0.041	0.000846000325
22	4587	0.041	0.0004707293
22	4588	0.041	9.5458275e-005
22	4589	0.041	0.000950597392
22	4590	0.041	0.00058317168
22	4591	0.041	0.000215745968
22	4592	0.041	0.000758615128
22	4593	0.041	0.000371678735
22	4594	0.041	0.00081624668
22	4595	0.041	0.00044417489
22	4596	0.041	7.21031e-005
22	4597	0.041	0.00068273808
22	4598	0.041	0.0002950721
22	4599	0.041	0.0009397243
22	4600	0.041	0.0005653292
22	4601	0.041	0.0001909341
22	4602	0.041	0.000779323608
22	4603	0.041	0.000392586335
22	4604	0.041	5.849062e-006
22	4605	0.041	0.000777839006
22	4606	0.041	0.000398384657
22	4607	0.041	1.8930308e-005
22	4608	0.041	0.000983552249
22	4609	0.041	0.000609566756
22	4610	0.041	0.000799732616
22	4611	0.041	0.000235581263
22	4612	0.041	0.000427507918
22	4613	0.041	5.528322e-005
22	4697	0.042	0.00072018725
22	4698	0.042	0.000344916225
22	4699	0.042	0.000848320256
22	4700	0.042	0.000480894544
22	4701	0.042	0.000113468832
22	4702	0.042	0.000984742342
22	4703	0.042	0.000597805949
22	4704	0.042	0.000210869556
22	4705	0.042	0.00070003131
22	4706	0.042	0.00032795952
22	4707	0.042	0.00090740612
22	4708	0.042	0.00051974014
22	4709	0.042	0.00013207416
22	4710	0.042	0.000816539
22	4711	0.042	0.0004421439
22	4712	0.042	6.77488e-005
22	4713	0.042	0.000619111789
22	4714	0.042	0.000232374516
22	4715	0.042	0.000639475959
22	4716	0.042	0.00026002161
22	4717	0.042	0.00086159577
22	4718	0.042	0.000487610277
22	4719	0.042	0.000683058522
22	4720	0.042	0.000113624784
22	4721	0.042	0.000310833824
22	4809	0.043	0.0009696452
22	4810	0.043	0.000594374175
22	4811	0.043	0.00021910315
22	4812	0.043	0.00074604312
22	4813	0.043	0.000378617408
22	4814	0.043	1.1191696e-005
22	4815	0.043	0.000823933163
22	4816	0.043	0.00043699677
22	4817	0.043	5.0060377e-005
22	4818	0.043	0.00095588773
22	4819	0.043	0.00058381594
22	4820	0.043	0.00021174415
22	4821	0.043	0.00074440818
22	4822	0.043	0.0003567422
22	4823	0.043	0.0006933537
22	4824	0.043	0.0003189586
22	4825	0.043	0.000845637243
22	4826	0.043	0.00045889997
22	4827	0.043	7.2162697e-005
22	4828	0.043	0.000880567261
22	4829	0.043	0.000501112912
22	4830	0.043	0.000121658563
22	4831	0.043	0.000739639291
22	4832	0.043	0.000365653798
22	4833	0.043	0.000938609126
22	4834	0.043	0.000566384428
22	4835	0.043	0.00019415973
22	4922	0.044	0.000843832125
22	4923	0.044	0.0004685611
22	4924	0.044	9.3290075e-005
22	4925	0.044	0.000643765984
22	4926	0.044	0.000276340272
22	4927	0.044	0.000663123984
22	4928	0.044	0.000276187591
22	4929	0.044	0.00083967236
22	4930	0.044	0.00046760057
22	4931	0.044	9.552878e-005
22	4932	0.044	0.00096907622
22	4933	0.044	0.00058141024
22	4934	0.044	0.00019374426
22	4935	0.044	0.0009445635
22	4936	0.044	0.0005701684
22	4937	0.044	0.0001957733
22	4938	0.044	0.000685425424
22	4939	0.044	0.000298688151
22	4940	0.044	0.000742204214
22	4941	0.044	0.000362749865
22	4942	0.044	0.000991668305
22	4943	0.044	0.000617682812
22	4944	0.044	0.000821935032
22	4945	0.044	0.000243697319
22	4946	0.044	0.000449710334
22	4947	0.044	7.7485636e-005
22	5035	0.045	0.00071801905
22	5036	0.045	0.000342748025
22	5037	0.045	0.00090891456
22	5038	0.045	0.000541488848
22	5039	0.045	0.000174063136
22	5040	0.045	0.000889251198
22	5041	0.045	0.000502314805
22	5042	0.045	0.000115378412
22	5043	0.045	0.00072345699
22	5044	0.045	0.0003513852
22	5045	0.045	0.00080607828
22	5046	0.045	0.0004184123
22	5047	0.045	3.074632e-005
22	5048	0.045	0.0008213782
22	5049	0.045	0.0004469831
22	5050	0.045	7.2588e-005
22	5051	0.045	0.000911950878
22	5052	0.045	0.000525213605
22	5053	0.045	0.000138476332
22	5054	0.045	0.000983295516
22	5055	0.045	0.000603841167
22	5056	0.045	0.000224386818
22	5057	0.045	0.000869711826
22	5058	0.045	0.000495726333
22	5059	0.045	0.000705260938
22	5060	0.045	0.00012174084
22	5061	0.045	0.00033303624
22	5145	0.046	0.000967477
22	5146	0.046	0.000592205975
22	5147	0.046	0.00021693495
22	5148	0.046	0.000806637424
22	5149	0.046	0.000439211712
22	5150	0.046	7.1786e-005
22	5151	0.046	0.000728442019
22	5152	0.046	0.000341505626
22	5153	0.046	0.00097931341
22	5154	0.046	0.00060724162
22	5155	0.046	0.00023516983
22	5156	0.046	0.00064308034
22	5157	0.046	0.00025541436
22	5158	0.046	0.0006981929
22	5159	0.046	0.0003237978
22	5160	0.046	0.000751739059
22	5161	0.046	0.000365001786
22	5162	0.046	0.000844932469
22	5163	0.046	0.00046547812
22	5164	0.046	8.6023771e-005
22	5165	0.046	0.000747755347
22	5166	0.046	0.000373769854
22	5167	0.046	0.000960811542
22	5168	0.046	0.000588586844
22	5169	0.046	0.000216362146
22	5260	0.047	0.000841663925
22	5261	0.047	0.0004663929
22	5262	0.047	9.1121875e-005
22	5263	0.047	0.000704360288
22	5264	0.047	0.000336934576
22	5265	0.047	0.000954569233
22	5266	0.047	0.00056763284
22	5267	0.047	0.000180696447
22	5268	0.047	0.00086309804
22	5269	0.047	0.00049102625
22	5270	0.047	0.00011895446
22	5271	0.047	0.00086774838
22	5272	0.047	0.0004800824
22	5273	0.047	9.241642e-005
22	5274	0.047	0.0009494027
22	5275	0.047	0.0005750076
22	5276	0.047	0.0002006125
22	5277	0.047	0.000978264513
22	5278	0.047	0.00059152724
22	5279	0.047	0.000204789967
22	5280	0.047	0.000706569422
22	5281	0.047	0.000327115073
22	5282	0.047	0.000999784361
22	5283	0.047	0.000625798868
22	5284	0.047	0.000844137448
22	5285	0.047	0.000251813375
22	5286	0.047	0.00047191275
22	5287	0.047	9.9688052e-005
22	5375	0.048	0.00071585085
22	5376	0.048	0.000340579825
22	5377	0.048	0.000969508864
22	5378	0.048	0.000602083152
22	5379	0.048	0.00023465744
22	5380	0.048	0.000793760054
22	5381	0.048	0.000406823661
22	5382	0.048	1.9887268e-005
22	5383	0.048	0.00074688267
22	5384	0.048	0.00037481088
22	5385	0.048	2.73909e-006
22	5386	0.048	0.00070475044
22	5387	0.048	0.00031708446
22	5388	0.048	0.0008262174
22	5389	0.048	0.0004518223
22	5390	0.048	7.74272e-005
22	5391	0.048	0.000818052694
22	5392	0.048	0.000431315421
22	5393	0.048	4.4578148e-005
22	5394	0.048	0.000947660724
22	5395	0.048	0.000568206375
22	5396	0.048	0.000188752026
22	5397	0.048	0.000877827882
22	5398	0.048	0.000503842389
22	5399	0.048	0.000727463354
22	5400	0.048	0.000129856896
22	5401	0.048	0.000355238656
22	5488	0.049	0.0009653088
22	5489	0.049	0.000590037775
22	5490	0.049	0.00021476675
22	5491	0.049	0.000867231728
22	5492	0.049	0.000499806016
22	5493	0.049	0.000132380304
22	5494	0.049	0.000632950875
22	5495	0.049	0.000246014482
22	5496	0.049	0.0006306673
22	5497	0.049	0.00025859551
22	5498	0.049	0.00092941848
22	5499	0.049	0.0005417525
22	5500	0.049	0.00015408652
22	5501	0.049	0.0007030321
22	5502	0.049	0.000328637
22	5503	0.049	0.000657840875
22	5504	0.049	0.000271103602
22	5505	0.049	0.000809297677
22	5506	0.049	0.000429843328
22	5507	0.049	5.0388979e-005
22	5508	0.049	0.000755871403
22	5509	0.049	0.00038188591
22	5510	0.049	0.000983013958
22	5511	0.049	7.900417e-006
22	5512	0.049	0.00061078926
22	5513	0.049	0.000238564562
22	5601	0.05	0.000839495725
22	5602	0.05	0.0004642247
22	5603	0.05	8.8953675e-005
22	5604	0.05	0.000764954592
22	5605	0.05	0.00039752888
22	5606	0.05	3.0103168e-005
22	5607	0.05	0.000859078089
22	5608	0.05	0.000472141696
22	5609	0.05	8.5205303e-005
22	5610	0.05	0.00088652372
22	5611	0.05	0.00051445193
22	5612	0.05	0.00014238014
22	5613	0.05	0.00076642054
22	5614	0.05	0.00037875456
22	5615	0.05	0.0009542419
22	5616	0.05	0.0005798468
22	5617	0.05	0.0002054517
22	5618	0.05	0.000884366329
22	5619	0.05	0.000497629056
22	5620	0.05	0.000110891783
22	5621	0.05	0.00067093463
22	5622	0.05	0.000291480281
22	5623	0.05	0.000633914924
22	5624	0.05	0.000259929431
22	5625	0.05	0.000866339864
22	5626	0.05	0.000494115166
22	5627	0.05	0.000121890468
22	5714	0.051	0.00071368265
22	5715	0.051	0.000338411625
22	5716	0.051	0.000662677456
22	5717	0.051	0.000295251744
22	5718	0.051	0.00069826891
22	5719	0.051	0.000311332517
22	5720	0.051	0.00077030835
22	5721	0.051	0.00039823656
22	5722	0.051	2.616477e-005
22	5723	0.051	0.00099108858
22	5724	0.051	0.0006034226
22	5725	0.051	0.00021575662
22	5726	0.051	0.0008310566
22	5727	0.051	0.0004566615
22	5728	0.051	8.22664e-005
22	5729	0.051	0.00072415451
22	5730	0.051	0.000337417237
22	5731	0.051	0.000912025932
22	5732	0.051	0.000532571583
22	5733	0.051	0.000153117234
22	5734	0.051	0.000885943938
22	5735	0.051	0.000511958445
22	5736	0.051	0.00074966577
22	5737	0.051	0.000137972952
22	5738	0.051	0.000377441072
22	5739	0.051	5.216374e-006
22	5827	0.052	0.0009631406
22	5828	0.052	0.000587869575
22	5829	0.052	0.00021259855
22	5830	0.052	0.000927826032
22	5831	0.052	0.00056040032
22	5832	0.052	0.000192974608
22	5833	0.052	0.000924396124
22	5834	0.052	0.000537459731
22	5835	0.052	0.000150523338
22	5836	0.052	0.00065409298
22	5837	0.052	0.00028202119
22	5838	0.052	0.00082809064
22	5839	0.052	0.00044042466
22	5840	0.052	5.275868e-005
22	5841	0.052	0.0007078713
22	5842	0.052	0.0003334762
22	5843	0.052	0.000950679964
22	5844	0.052	0.000563942691
22	5845	0.052	0.000177205418
22	5846	0.052	0.000773662885
22	5847	0.052	0.000394208536
22	5848	0.052	1.4754187e-005
22	5849	0.052	0.000763987459
22	5850	0.052	0.000390001966
22	5851	0.052	0.000632991676
22	5852	0.052	1.6016473e-005
22	5853	0.052	0.000260766978
22	5939	0.053	0.000837327525
22	5940	0.053	0.0004620565
22	5941	0.053	8.6785475e-005
22	5942	0.053	0.000825548896
22	5943	0.053	0.000458123184
22	5944	0.053	9.0697472e-005
22	5945	0.053	0.000763586945
22	5946	0.053	0.000376650552
22	5947	0.053	0.0009099494
22	5948	0.053	0.00053787761
22	5949	0.053	0.00016580582
22	5950	0.053	0.0006650927
22	5951	0.053	0.00027742672
22	5952	0.053	0.0009590811
22	5953	0.053	0.000584686
22	5954	0.053	0.0002102909
22	5955	0.053	0.000790468145
22	5956	0.053	0.000403730872
22	5957	0.053	1.6993599e-005
22	5958	0.053	0.000635299838
22	5959	0.053	0.000255845489
22	5960	0.053	0.00064203098
22	5961	0.053	0.000268045487
22	5962	0.053	0.00088854228
22	5963	0.053	0.000516317582
22	5964	0.053	0.000144092884
22	6053	0.054	0.00071151445
22	6054	0.054	0.000336243425
22	6055	0.054	0.00072327176
22	6056	0.054	0.000355846048
22	6057	0.054	0.000989714159
22	6058	0.054	0.000602777766
22	6059	0.054	0.000215841373
22	6060	0.054	0.00079373403
22	6061	0.054	0.00042166224
22	6062	0.054	4.959045e-005
22	6063	0.054	0.00088976074
22	6064	0.054	0.00050209476
22	6065	0.054	0.00011442878
22	6066	0.054	0.0008358958
22	6067	0.054	0.0004615007
22	6068	0.054	8.71056e-005
22	6069	0.054	0.000630256326
22	6070	0.054	0.000243519053
22	6071	0.054	0.00087639114
22	6072	0.054	0.000496936791
22	6073	0.054	0.000117482442
22	6074	0.054	0.000894059994
22	6075	0.054	0.000520074501
22	6076	0.054	0.000771868186
22	6077	0.054	0.000146089008
22	6078	0.054	0.000399643488
22	6079	0.054	2.741879e-005
22	6163	0.055	0.0009609724
22	6164	0.055	0.000585701375
22	6165	0.055	0.00021043035
22	6166	0.055	0.000988420336
22	6167	0.055	0.000620994624
22	6168	0.055	0.000253568912
22	6169	0.055	0.00082890498
22	6170	0.055	0.000441968587
22	6171	0.055	5.5032194e-005
22	6172	0.055	0.00067751866
22	6173	0.055	0.00030544687
22	6174	0.055	0.0007267628
22	6175	0.055	0.00033909682
22	6176	0.055	0.0007127105
22	6177	0.055	0.0003383154
22	6178	0.055	0.00085678178
22	6179	0.055	0.000470044507
22	6180	0.055	8.3307234e-005
22	6181	0.055	0.000738028093
22	6182	0.055	0.000358573744
22	6183	0.055	0.000772103515
22	6184	0.055	0.000398118022
22	6185	0.055	0.000655194092
22	6186	0.055	2.4132529e-005
22	6187	0.055	0.000282969394
22	6275	0.056	0.000835159325
22	6276	0.056	0.0004598883
22	6277	0.056	8.4617275e-005
22	6278	0.056	0.0008861432
22	6279	0.056	0.000518717488
22	6280	0.056	0.000151291776
22	6281	0.056	0.000668095801
22	6282	0.056	0.000281159408
22	6283	0.056	0.00093337508
22	6284	0.056	0.00056130329
22	6285	0.056	0.0001892315
22	6286	0.056	0.00095143084
22	6287	0.056	0.00056376486
22	6288	0.056	0.00017609888
22	6289	0.056	0.0009639203
22	6290	0.056	0.0005895252
22	6291	0.056	0.0002151301
22	6292	0.056	0.000696569961
22	6293	0.056	0.000309832688
22	6294	0.056	0.000979119395
22	6295	0.056	0.000599665046
22	6296	0.056	0.000220210697
22	6297	0.056	0.000650147036
22	6298	0.056	0.000276161543
22	6299	0.056	0.000910744696
22	6300	0.056	0.000538519998
22	6301	0.056	0.0001662953
22	6394	0.057	0.00070934625
22	6395	0.057	0.000334075225
22	6396	0.057	0.000783866064
22	6397	0.057	0.000416440352
22	6398	0.057	4.901464e-005
22	6399	0.057	0.000894223015
22	6400	0.057	0.000507286622
22	6401	0.057	0.000120350229
22	6402	0.057	0.00081715971
22	6403	0.057	0.00044508792
22	6404	0.057	7.301613e-005
22	6405	0.057	0.0007884329
22	6406	0.057	0.00040076692
22	6407	0.057	1.310094e-005
22	6408	0.057	0.000840735
22	6409	0.057	0.0004663399
22	6410	0.057	9.19448e-005
22	6411	0.057	0.000923095415
22	6412	0.057	0.000536358142
22	6413	0.057	0.000149620869
22	6414	0.057	0.000840756348
22	6415	0.057	0.000461301999
22	6416	0.057	8.184765e-005
22	6417	0.057	0.00090217605
22	6418	0.057	0.000528190557
22	6419	0.057	0.000794070602
22	6420	0.057	0.000154205064
22	6421	0.057	0.000421845904
22	6422	0.057	4.9621206e-005
22	6500	0.058	0.0009588042
22	6501	0.058	0.000583533175
22	6502	0.058	0.00020826215
22	6503	0.058	0.000681588928
22	6504	0.058	0.000314163216
22	6505	0.058	0.000733413836
22	6506	0.058	0.000346477443
22	6507	0.058	0.00070094434
22	6508	0.058	0.00032887255
22	6509	0.058	0.00062543496
22	6510	0.058	0.00023776898
22	6511	0.058	0.0007175497
22	6512	0.058	0.0003431546
22	6513	0.058	0.000762883596
22	6514	0.058	0.000376146323
22	6515	0.058	0.000702393301
22	6516	0.058	0.000322938952
22	6517	0.058	0.000780219571
22	6518	0.058	0.000406234078
22	6519	0.058	0.000677396508
22	6520	0.058	3.2248585e-005
22	6521	0.058	0.00030517181
22	6613	0.059	0.000832991125
22	6614	0.059	0.0004577201
22	6615	0.059	8.2449075e-005
22	6616	0.059	0.000946737504
22	6617	0.059	0.000579311792
22	6618	0.059	0.00021188608
22	6619	0.059	0.00095954105
22	6620	0.059	0.000572604657
22	6621	0.059	0.000185668264
22	6622	0.059	0.00095680076
22	6623	0.059	0.00058472897
22	6624	0.059	0.00021265718
22	6625	0.059	0.000850103
22	6626	0.059	0.00046243702
22	6627	0.059	7.477104e-005
22	6628	0.059	0.0009687595
22	6629	0.059	0.0005943644
22	6630	0.059	0.0002199693
22	6631	0.059	0.00098940905
22	6632	0.059	0.000602671777
22	6633	0.059	0.000215934504
22	6634	0.059	0.000943484603
22	6635	0.059	0.000564030254
22	6636	0.059	0.000184575905
22	6637	0.059	0.000658263092
[...]
22	6962	0.062	0.00023608286
22	6963	0.062	0.00074877516
22	6964	0.062	0.00036110918
22	6965	0.062	0.0009735987
22	6966	0.062	0.0005992036
22	6967	0.062	0.0002248085
22	6968	0.062	0.000895510866
22	6969	0.062	0.000508773593
22	6970	0.062	0.00012203632
22	6971	0.062	0.000907849811
22	6972	0.062	0.000528395462
22	6973	0.062	0.000148941113
22	6974	0.062	0.000666379148
22	6975	0.062	0.000292393655
22	6976	0.062	0.000955149528
22	6977	0.062	0.00058292483
22	6978	0.062	0.000210700132
22	7067	0.063	0.00070500985
22	7068	0.063	0.000329738825
22	7069	0.063	0.000905054672
22	7070	0.063	0.00053762896
22	7071	0.063	0.000170203248
22	7072	0.063	0.000703240727
22	7073	0.063	0.000316304334
22	7074	0.063	0.00086401107
22	7075	0.063	0.00049193928
22	7076	0.063	0.00011986749
22	7077	0.063	0.0009734432
22	7078	0.063	0.00058577722
22	7079	0.063	0.00019811124
22	7080	0.063	0.0008504134
22	7081	0.063	0.0004760183
22	7082	0.063	0.0001016232
22	7083	0.063	0.000735299047
22	7084	0.063	0.000348561774
22	7085	0.063	0.000769486764
22	7086	0.063	0.000390032415
22	7087	0.063	1.0578066e-005
22	7088	0.063	0.000918408162
22	7089	0.063	0.000544422669
22	7090	0.063	0.000838475434
22	7091	0.063	0.000170437176
22	7092	0.063	0.000466250736
22	7093	0.063	9.4026038e-005
22	7181	0.064	0.0009544678
22	7182	0.064	0.000579196775
22	7183	0.064	0.00020392575
22	7184	0.064	0.000802777536
22	7185	0.064	0.000435351824
22	7186	0.064	6.7926112e-005
22	7187	0.064	0.000929367941
22	7188	0.064	0.000542431548
22	7189	0.064	0.000155495155
22	7190	0.064	0.0007477957
22	7191	0.064	0.00037572391
22	7192	0.064	3.65212e-006
22	7193	0.064	0.00081044526
22	7194	0.064	0.00042277928
22	7195	0.064	3.51133e-005
22	7196	0.064	0.0007272281
22	7197	0.064	0.000352833
22	7198	0.064	0.000961824501
22	7199	0.064	0.000575087228
22	7200	0.064	0.000188349955
22	7201	0.064	0.000631123717
22	7202	0.064	0.000251669368
22	7203	0.064	0.000796451683
22	7204	0.064	0.00042246619
22	7205	0.064	0.00072180134
22	7206	0.064	4.8480697e-005
22	7207	0.064	0.000349576642
22	7291	0.065	0.000828654725
22	7292	0.065	0.0004533837
22	7293	0.065	7.8112675e-005
22	7294	0.065	0.0007005004
22	7295	0.065	0.000333074688
22	7296	0.065	0.000768558762
22	7297	0.065	0.000381622369
22	7298	0.065	0.00063158033
22	7299	0.065	0.00025950854
22	7300	0.065	0.00064744732
22	7301	0.065	0.00025978134
22	7302	0.065	0.0009784379
22	7303	0.065	0.0006040428
22	7304	0.065	0.0002296477
22	7305	0.065	0.000801612682
22	7306	0.065	0.000414875409
22	7307	0.065	2.8138136e-005
22	7308	0.065	0.000872215019
22	7309	0.065	0.00049276067
22	7310	0.065	0.000113306321
22	7311	0.065	0.000674495204
22	7312	0.065	0.000300509711
22	7313	0.065	0.000977351944
22	7314	0.065	0.000605127246
22	7315	0.065	0.000232902548
22	7404	0.066	0.00070284165
22	7405	0.066	0.000327570625
22	7406	0.066	0.000965648976
22	7407	0.066	0.000598223264
22	7408	0.066	0.000230797552
22	7409	0.066	0.000994685976
22	7410	0.066	0.000607749583
22	7411	0.066	0.00022081319
22	7412	0.066	0.00088743675
22	7413	0.066	0.00051536496
22	7414	0.066	0.00014329317
22	7415	0.066	0.00087211536
22	7416	0.066	0.00048444938
22	7417	0.066	9.67834e-005
22	7418	0.066	0.0008552526
22	7419	0.066	0.0004808575
22	7420	0.066	0.0001064624
22	7421	0.066	0.000641400863
22	7422	0.066	0.00025466359
22	7423	0.066	0.000733851972
22	7424	0.066	0.000354397623
22	7425	0.066	0.000926524218
22	7426	0.066	0.000552538725
22	7427	0.066	0.00086067785
22	7428	0.066	0.000178553232
22	7429	0.066	0.000488453152
22	7430	0.066	0.000116228454
22	7518	0.067	0.0009522996
22	7519	0.067	0.000577028575
22	7520	0.067	0.00020175755
22	7521	0.067	0.00086337184
22	7522	0.067	0.000495946128
22	7523	0.067	0.000128520416
22	7524	0.067	0.000833876797
22	7525	0.067	0.000446940404
22	7526	0.067	6.0004011e-005
22	7527	0.067	0.00077122138
22	7528	0.067	0.00039914959
22	7529	0.067	2.70778e-005
22	7530	0.067	0.00070911742
22	7531	0.067	0.00032145144
22	7532	0.067	0.0007320673
22	7533	0.067	0.0003576722
22	7534	0.067	0.000867926317
22	7535	0.067	0.000481189044
22	7536	0.067	9.4451771e-005
22	7537	0.067	0.000974943274
22	7538	0.067	0.000595488925
22	7539	0.067	0.000216034576
22	7540	0.067	0.000804567739
22	7541	0.067	0.000430582246
22	7542	0.067	0.000744003756
22	7543	0.067	5.6596753e-005
22	7544	0.067	0.000371779058
22	7630	0.068	0.000826486525
22	7631	0.068	0.0004512155
22	7632	0.068	7.5944475e-005
22	7633	0.068	0.000761094704
22	7634	0.068	0.000393668992
22	7635	0.068	2.624328e-005
22	7636	0.068	0.000673067618
22	7637	0.068	0.000286131225
22	7638	0.068	0.00065500601
22	7639	0.068	0.00028293422
22	7640	0.068	0.00093378546
22	7641	0.068	0.00054611948
22	7642	0.068	0.0001584535
22	7643	0.068	0.0009832771
22	7644	0.068	0.000608882
22	7645	0.068	0.0002344869
22	7646	0.068	0.000707714498
22	7647	0.068	0.000320977225
22	7648	0.068	0.000836580227
22	7649	0.068	0.000457125878
22	7650	0.068	7.7671529e-005
22	7651	0.068	0.00068261126
22	7652	0.068	0.000308625767
22	7653	0.068	0.00099955436
22	7654	0.068	0.000627329662
22	7655	0.068	0.000255104964
22	7742	0.069	0.00070067345
22	7743	0.069	0.000325402425
22	7744	0.069	0.000658817568
22	7745	0.069	0.000291391856
22	7746	0.069	0.000899194832
22	7747	0.069	0.000512258439
22	7748	0.069	0.000125322046
22	7749	0.069	0.00091086243
22	7750	0.069	0.00053879064
22	7751	0.069	0.00016671885
22	7752	0.069	0.00077078752
22	7753	0.069	0.00038312154
22	7754	0.069	0.0008600918
22	7755	0.069	0.0004856967
22	7756	0.069	0.0001113016
22	7757	0.069	0.000934239952
22	7758	0.069	0.000547502679
22	7759	0.069	0.000160765406
22	7760	0.069	0.00069821718
22	7761	0.069	0.000318762831
22	7762	0.069	0.000934640274
22	7763	0.069	0.000560654781
22	7764	0.069	0.000882880266
22	7765	0.069	0.000186669288
22	7766	0.069	0.000510655568
22	7767	0.069	0.00013843087
22	7858	0.07	0.0009501314
22	7859	0.07	0.000574860375
22	7860	0.07	0.00019958935
22	7861	0.07	0.000923966144
22	7862	0.07	0.000556540432
22	7863	0.07	0.00018911472
22	7864	0.07	0.000738385653
22	7865	0.07	0.00035144926
22	7866	0.07	0.00079464706
22	7867	0.07	0.00042257527
22	7868	0.07	5.050348e-005
22	7869	0.07	0.00099545556
22	7870	0.07	0.00060778958
22	7871	0.07	0.0002201236
22	7872	0.07	0.0007369065
22	7873	0.07	0.0003625114
22	7874	0.07	0.000774028133
22	7875	0.07	0.00038729086
22	7876	0.07	5.53587e-007
22	7877	0.07	0.000939308482
22	7878	0.07	0.000559854133
22	7879	0.07	0.000180399784
22	7880	0.07	0.000812683795
22	7881	0.07	0.000438698302
22	7882	0.07	0.000766206172
22	7883	0.07	6.4712809e-005
22	7884	0.07	0.000393981474
22	7885	0.07	2.1756776e-005
22	7970	0.071	0.000824318325
22	7971	0.071	0.0004490473
22	7972	0.071	7.3776275e-005
22	7973	0.071	0.000821689008
22	7974	0.071	0.000454263296
22	7975	0.071	8.6837584e-005
22	7976	0.071	0.000964512867
22	7977	0.071	0.000577576474
22	7978	0.071	0.000190640081
22	7979	0.071	0.00067843169
22	7980	0.071	0.0003063599
22	7981	0.071	0.00083245762
22	7982	0.071	0.00044479164
22	7983	0.071	5.712566e-005
22	7984	0.071	0.0009881163
22	7985	0.071	0.0006137212
22	7986	0.071	0.0002393261
22	7987	0.071	0.000613816314
22	7988	0.071	0.000227079041
22	7989	0.071	0.000800945435
22	7990	0.071	0.000421491086
22	7991	0.071	4.2036737e-005
22	7992	0.071	0.000690727316
22	7993	0.071	0.000316741823
22	7994	0.071	0.000649532078
22	7995	0.071	0.00027730738
22	8082	0.072	0.00069850525
22	8083	0.072	0.000323234225
22	8084	0.072	0.000719411872
22	8085	0.072	0.00035198616
22	8086	0.072	0.000803703688
22	8087	0.072	0.000416767295
22	8088	0.072	2.9830902e-005
22	8089	0.072	0.00093428811
22	8090	0.072	0.00056221632
22	8091	0.072	0.00019014453
22	8092	0.072	0.00066945968
22	8093	0.072	0.0002817937
22	8094	0.072	0.000864931
22	8095	0.072	0.0004905359
22	8096	0.072	0.0001161408
22	8097	0.072	0.000840341768
22	8098	0.072	0.000453604495
22	8099	0.072	6.6867222e-005
22	8100	0.072	0.000662582388
22	8101	0.072	0.000283128039
22	8102	0.072	0.00094275633
22	8103	0.072	0.000568770837
22	8104	0.072	0.000905082682
22	8105	0.072	0.000194785344
22	8106	0.072	0.000532857984
22	8107	0.072	0.000160633286
22	8196	0.073	0.0009479632
22	8197	0.073	0.000572692175
22	8198	0.073	0.00019742115
22	8199	0.073	0.000984560448
22	8200	0.073	0.000617134736
22	8201	0.073	0.000249709024
22	8202	0.073	0.000642894509
22	8203	0.073	0.000255958116
22	8204	0.073	0.00081807274
22	8205	0.073	0.00044600095
22	8206	0.073	7.392916e-005
22	8207	0.073	0.00089412772
22	8208	0.073	0.00050646174
22	8209	0.073	0.00011879576
22	8210	0.073	0.0007417457
22	8211	0.073	0.0003673506
22	8212	0.073	0.000680129949
22	8213	0.073	0.000293392676
22	8214	0.073	0.00090367369
22	8215	0.073	0.000524219341
22	8216	0.073	0.000144764992
22	8217	0.073	0.000820799851
22	8218	0.073	0.000446814358
22	8219	0.073	0.000788408588
22	8220	0.073	7.2828865e-005
22	8221	0.073	0.00041618389
22	8222	0.073	4.3959192e-005
22	8307	0.074	0.000822150125
22	8308	0.074	0.0004468791
22	8309	0.074	7.1608075e-005
22	8310	0.074	0.000882283312
22	8311	0.074	0.0005148576
22	8312	0.074	0.000147431888
22	8313	0.074	0.000869021723
22	8314	0.074	0.00048208533
22	8315	0.074	9.5148937e-005
22	8316	0.074	0.00070185737
22	8317	0.074	0.00032978558
22	8318	0.074	0.00073112978
22	8319	0.074	0.0003434638
22	8320	0.074	0.0009929555
22	8321	0.074	0.0006185604
22	8322	0.074	0.0002441653
22	8323	0.074	0.000906655403
22	8324	0.074	0.00051991813
22	8325	0.074	0.000133180857
22	8326	0.074	0.000765310643
22	8327	0.074	0.000385856294
22	8328	0.074	6.401945e-006
22	8329	0.074	0.000698843372
22	8330	0.074	0.000324857879
22	8331	0.074	0.000671734494
22	8332	0.074	0.000299509796
22	8419	0.075	0.00069633705
22	8420	0.075	0.000321066025
22	8421	0.075	0.000780006176
22	8422	0.075	0.000412580464
22	8423	0.075	4.5154752e-005
22	8424	0.075	0.000708212544
22	8425	0.075	0.000321276151
22	8426	0.075	0.00095771379
22	8427	0.075	0.000585642
22	8428	0.075	0.00021357021
22	8429	0.075	0.00095579782
22	8430	0.075	0.00056813184
22	8431	0.075	0.00018046586
22	8432	0.075	0.0008697702
22	8433	0.075	0.0004953751
22	8434	0.075	0.00012098
22	8435	0.075	0.000746443584
22	8436	0.075	0.000359706311
22	8437	0.075	0.000626947596
22	8438	0.075	0.000247493247
22	8439	0.075	0.000950872386
22	8440	0.075	0.000576886893
22	8441	0.075	0.000927285098
22	8442	0.075	0.0002029014
22	8443	0.075	0.0005550604
22	8444	0.075	0.000182835702
22	8535	0.076	0.000945795
22	8536	0.076	0.000570523975
22	8537	0.076	0.00019525295
22	8538	0.076	0.00067772904
22	8539	0.076	0.000310303328
22	8540	0.076	0.000934339758
22	8541	0.076	0.000547403365
22	8542	0.076	0.000160466972
22	8543	0.076	0.00084149842
22	8544	0.076	0.00046942663
22	8545	0.076	9.735484e-005
22	8546	0.076	0.00079279988
22	8547	0.076	0.0004051339
22	8548	0.076	1.746792e-005
22	8549	0.076	0.0007465849
22	8550	0.076	0.0003721898
22	8551	0.076	0.000972969038
22	8552	0.076	0.000586231765
22	8553	0.076	0.000199494492
22	8554	0.076	0.000868038898
22	8555	0.076	0.000488584549
22	8556	0.076	0.0001091302
22	8557	0.076	0.000828915907
22	8558	0.076	0.000454930414
22	8559	0.076	0.000810611004
22	8560	0.076	8.0944921e-005
22	8561	0.076	0.000438386306
22	8562	0.076	6.6161608e-005
22	8643	0.077	0.000819981925
22	8644	0.077	0.0004447109
22	8645	0.077	6.9439875e-005
22	8646	0.077	0.000942877616
22	8647	0.077	0.000575451904
22	8648	0.077	0.000208026192
22	8649	0.077	0.000773530579
22	8650	0.077	0.000386594186
22	8651	0.077	0.00072528305
22	8652	0.077	0.00035321126
22	8653	0.077	0.00062980194
22	8654	0.077	0.00024213596
22	8655	0.077	0.0009977947
22	8656	0.077	0.0006233996
22	8657	0.077	0.0002490045
22	8658	0.077	0.000812757219
22	8659	0.077	0.000426019946
22	8660	0.077	3.9282673e-005
22	8661	0.077	0.000729675851
22	8662	0.077	0.000350221502
22	8663	0.077	0.000706959428
22	8664	0.077	0.000332973935
22	8665	0.077	0.00069393691
22	8666	0.077	0.000321712212
22	8757	0.078	0.00069416885
22	8758	0.078	0.000318897825
22	8759	0.078	0.00084060048
22	8760	0.078	0.000473174768
22	8761	0.078	0.000105749056
22	8762	0.078	0.000999657793
22	8763	0.078	0.0006127214
22	8764	0.078	0.000225785007
22	8765	0.078	0.00098113947
22	8766	0.078	0.00060906768
22	8767	0.078	0.00023699589
22	8768	0.078	0.00085446998
22	8769	0.078	0.000466804
22	8770	0.078	7.913802e-005
22	8771	0.078	0.0008746094
22	8772	0.078	0.0005002143
22	8773	0.078	0.0001258192
22	8774	0.078	0.0006525454
22	8775	0.078	0.000265808127
22	8776	0.078	0.000970767153
22	8777	0.078	0.000591312804
22	8778	0.078	0.000211858455
22	8779	0.078	0.000958988442
22	8780	0.078	0.000585002949
22	8781	0.078	0.000949487514
22	8782	0.078	0.000211017456
22	8783	0.078	0.000577262816
22	8784	0.078	0.000205038118
22	8877	0.079	0.0009436268
22	8878	0.079	0.000568355775
22	8879	0.079	0.00019308475
22	8880	0.079	0.000738323344
22	8881	0.079	0.000370897632
22	8882	0.079	3.47192e-006
22	8883	0.079	0.000838848614
22	8884	0.079	0.000451912221
22	8885	0.079	6.4975828e-005
22	8886	0.079	0.0008649241
22	8887	0.079	0.00049285231
22	8888	0.079	0.00012078052
22	8889	0.079	0.00069147204
22	8890	0.079	0.00030380606
22	8891	0.079	0.0007514241
22	8892	0.079	0.000377029
22	8893	0.079	2.6339e-006
22	8894	0.079	0.000879070854
22	8895	0.079	0.000492333581
22	8896	0.079	0.000105596308
22	8897	0.079	0.000832404106
22	8898	0.079	0.000452949757
22	8899	0.079	7.3495408e-005
22	8900	0.079	0.000837031963
22	8901	0.079	0.00046304647
22	8902	0.079	0.00083281342
22	8903	0.079	8.9060977e-005
22	8904	0.079	0.000460588722
22	8905	0.079	8.8364024e-005
22	8984	0.08	0.000817813725
22	8985	0.08	0.0004425427
22	8986	0.08	6.7271675e-005
22	8987	0.08	0.000636046208
22	8988	0.08	0.000268620496
22	8989	0.08	0.000678039435
22	8990	0.08	0.000291103042
22	8991	0.08	0.00074870873
22	8992	0.08	0.00037663694
22	8993	0.08	4.56515e-006
22	8994	0.08	0.00091614008
22	8995	0.08	0.0005284741
22	8996	0.08	0.00014080812
22	8997	0.08	0.0006282388
22	8998	0.08	0.0002538437
22	8999	0.08	0.000718859035
22	9000	0.08	0.000332121762
22	9001	0.08	0.000694041059
22	9002	0.08	0.00031458671
22	9003	0.08	0.000715075484
22	9004	0.08	0.000341089991
22	9005	0.08	0.000716139326
22	9006	0.08	0.000343914628
22	9095	0.081	0.00069200065
22	9096	0.081	0.000316729625
22	9097	0.081	0.000901194784
22	9098	0.081	0.000533769072
22	9099	0.081	0.00016634336
22	9100	0.081	0.000904166649
22	9101	0.081	0.000517230256
22	9102	0.081	0.000130293863
22	9103	0.081	0.00063249336
22	9104	0.081	0.00026042157
22	9105	0.081	0.00075314214
22	9106	0.081	0.00036547616
22	9107	0.081	0.0008794486
22	9108	0.081	0.0005050535
22	9109	0.081	0.0001306584
22	9110	0.081	0.000945384489
22	9111	0.081	0.000558647216
22	9112	0.081	0.000171909943
22	9113	0.081	0.000935132361
22	9114	0.081	0.000555678012
22	9115	0.081	0.000176223663
22	9116	0.081	0.000967104498
22	9117	0.081	0.000593119005
22	9118	0.081	0.00097168993
22	9119	0.081	0.000219133512
22	9120	0.081	0.000599465232
22	9121	0.081	0.000227240534
22	9214	0.082	0.0009414586
22	9215	0.082	0.000566187575
22	9216	0.082	0.00019091655
22	9217	0.082	0.000798917648
22	9218	0.082	0.000431491936
22	9219	0.082	6.4066224e-005
22	9220	0.082	0.00074335747
22	9221	0.082	0.000356421077
22	9222	0.082	0.00088834978
22	9223	0.082	0.00051627799
22	9224	0.082	0.0001442062
22	9225	0.082	0.00097781018
22	9226	0.082	0.0005901442
22	9227	0.082	0.00020247822
22	9228	0.082	0.0007562633
22	9229	0.082	0.0003818682
22	9230	0.082	7.4731e-006
22	9231	0.082	0.00078517267
22	9232	0.082	0.000398435397
22	9233	0.082	1.1698124e-005
22	9234	0.082	0.000796769314
22	9235	0.082	0.000417314965
22	9236	0.082	3.7860616e-005
22	9237	0.082	0.000845148019
22	9238	0.082	0.000471162526
22	9239	0.082	0.000855015836
22	9240	0.082	9.7177033e-005
22	9241	0.082	0.000482791138
22	9242	0.082	0.00011056644
22	9323	0.083	0.000815645525
22	9324	0.083	0.0004403745
22	9325	0.083	6.5103475e-005
22	9326	0.083	0.000696640512
22	9327	0.083	0.0003292148
22	9328	0.083	0.000969484684
22	9329	0.083	0.000582548291
22	9330	0.083	0.000195611898
22	9331	0.083	0.00077213441
22	9332	0.083	0.00040006262
22	9333	0.083	2.799083e-005
22	9334	0.083	0.00081481224
22	9335	0.083	0.00042714626
22	9336	0.083	3.948028e-005
22	9337	0.083	0.000633078
22	9338	0.083	0.0002586829
22	9339	0.083	0.000624960851
22	9340	0.083	0.000238223578
22	9341	0.083	0.000658406267
22	9342	0.083	0.000278951918
22	9343	0.083	0.00072319154
22	9344	0.083	0.000349206047
22	9345	0.083	0.000738341742
22	9346	0.083	0.000366117044
22	9435	0.084	0.00068983245
22	9436	0.084	0.000314561425
22	9437	0.084	0.000961789088
22	9438	0.084	0.000594363376
22	9439	0.084	0.000226937664
22	9440	0.084	0.000808675505
22	9441	0.084	0.000421739112
22	9442	0.084	3.4802719e-005
22	9443	0.084	0.00065591904
22	9444	0.084	0.00028384725
22	9445	0.084	0.0006518143
22	9446	0.084	0.00026414832
22	9447	0.084	0.0008842878
22	9448	0.084	0.0005098927
22	9449	0.084	0.0001354976
22	9450	0.084	0.000851486305
22	9451	0.084	0.000464749032
22	9452	0.084	7.8011759e-005
22	9453	0.084	0.000899497569
22	9454	0.084	0.00052004322
22	9455	0.084	0.000140588871
22	9456	0.084	0.000975220554
22	9457	0.084	0.000601235061
22	9458	0.084	0.000993892346
22	9459	0.084	0.000227249568
22	9460	0.084	0.000621667648
22	9461	0.084	0.00024944295
22	9552	0.085	0.0009392904
22	9553	0.085	0.000564019375
22	9554	0.085	0.00018874835
22	9555	0.085	0.000859511952
22	9556	0.085	0.00049208624
22	9557	0.085	0.000124660528
22	9558	0.085	0.000647866326
22	9559	0.085	0.000260929933
22	9560	0.085	0.00091177546
22	9561	0.085	0.00053970367
22	9562	0.085	0.00016763188
22	9563	0.085	0.00087648234
22	9564	0.085	0.00048881636
22	9565	0.085	0.00010115038
22	9566	0.085	0.0007611025
22	9567	0.085	0.0003867074
22	9568	0.085	1.23123e-005
22	9569	0.085	0.000691274486
22	9570	0.085	0.000304537213
22	9571	0.085	0.000761134522
22	9572	0.085	0.000381680173
22	9573	0.085	2.225824e-006
22	9574	0.085	0.000853264075
22	9575	0.085	0.000479278582
22	9576	0.085	0.000877218252
22	9577	0.085	0.000105293089
22	9578	0.085	0.000504993554
22	9579	0.085	0.000132768856
22	9665	0.086	0.000813477325
22	9666	0.086	0.0004382063
22	9667	0.086	6.2935275e-005
22	9668	0.086	0.000757234816
22	9669	0.086	0.000389809104
22	9670	0.086	2.2383392e-005
22	9671	0.086	0.00087399354
22	9672	0.086	0.000487057147
22	9673	0.086	0.000100120754
22	9674	0.086	0.00079556009
22	9675	0.086	0.0004234883
22	9676	0.086	5.141651e-005
22	9677	0.086	0.0007134844
22	9678	0.086	0.00032581842
22	9679	0.086	0.0006379172
22	9680	0.086	0.0002635221
22	9681	0.086	0.00091779994
22	9682	0.086	0.000531062667
22	9683	0.086	0.000144325394
22	9684	0.086	0.000622771475
22	9685	0.086	0.000243317126
22	9686	0.086	0.000731307596
22	9687	0.086	0.000357322103
22	9688	0.086	0.000760544158
22	9689	0.086	0.00038831946
22	9690	0.086	1.6094762e-005
22	9772	0.087	0.00068766425
22	9773	0.087	0.000312393225
22	9774	0.087	0.00065495768
22	9775	0.087	0.000287531968
22	9776	0.087	0.000713184361
22	9777	0.087	0.000326247968
22	9778	0.087	0.00067934472
22	9779	0.087	0.00030727293
22	9780	0.087	0.00093815244
22	9781	0.087	0.00055048646
22	9782	0.087	0.00016282048
22	9783	0.087	0.000889127
22	9784	0.087	0.0005147319
22	9785	0.087	0.0001403368
22	9786	0.087	0.000757588121
22	9787	0.087	0.000370850848
22	9788	0.087	0.000863862777
22	9789	0.087	0.000484408428
22	9790	0.087	0.000104954079
22	9791	0.087	0.00098333661
22	9792	0.087	0.000609351117
22	9793	0.087	0.000643870064
22	9794	0.087	0.000235365624
22	9795	0.087	0.000271645366
22	9886	0.088	0.0009371222
22	9887	0.088	0.000561851175
22	9888	0.088	0.00018658015
22	9889	0.088	0.000920106256
22	9890	0.088	0.000552680544
22	9891	0.088	0.000185254832
22	9892	0.088	0.000939311575
22	9893	0.088	0.000552375182
22	9894	0.088	0.000165438789
22	9895	0.088	0.00093520114
22	9896	0.088	0.00056312935
22	9897	0.088	0.00019105756
22	9898	0.088	0.0007751545
22	9899	0.088	0.00038748852
22	9900	0.088	0.0007659417
22	9901	0.088	0.0003915466
22	9902	0.088	1.71515e-005
22	9903	0.088	0.000984113575
22	9904	0.088	0.000597376302
22	9905	0.088	0.000210639029
22	9906	0.088	0.00072549973
22	9907	0.088	0.000346045381
22	9908	0.088	0.000861380131
22	9909	0.088	0.000487394638
22	9910	0.088	0.000899420668
22	9911	0.088	0.000113409145
22	9912	0.088	0.00052719597
22	9913	0.088	0.000154971272

