version 2
run _10UsersSetupPF-0-20201129-16:50:06-6992
attr configname _10UsersSetupPF
attr datetime 20201129-16:50:06
attr experiment _10UsersSetupPF
attr inifile omnetpp.ini
attr iterationvars ""
attr iterationvarsf ""
attr measurement ""
attr network Network
attr processid 6992
attr repetition 0
attr replication #0
attr resultdir results
attr runnumber 0
attr seedset 0
param **.algorithm "\"pf\""
param **.usersCount 10
param **.channelsCount 30
param **.networkLoad 0.9
param **.scheduler.generateInterval 1ms
param **.gen.generateInterval "triang(0.9ms, 1.0ms, 1.1ms)"
param **.user[0].radioLinkQuality 5
param **.user[1].radioLinkQuality 3
param **.user[2].radioLinkQuality 4
param **.user[3].radioLinkQuality 8
param **.user[4].radioLinkQuality 10
param **.user[5].radioLinkQuality 3
param **.user[6].radioLinkQuality 4
param **.user[7].radioLinkQuality 3
param **.user[8].radioLinkQuality 2
param **.user[9].radioLinkQuality 7
param **.user[0].gen.startingMessage 0
param **.user[1].gen.startingMessage 100
param **.user[2].gen.startingMessage 200
param **.user[3].gen.startingMessage 300
param **.user[4].gen.startingMessage 400
param **.user[5].gen.startingMessage 500
param **.user[6].gen.startingMessage 600
param **.user[7].gen.startingMessage 700
param **.user[8].gen.startingMessage 800
param **.user[9].gen.startingMessage 900

vector 0 Network.user[0].queue "Queue before scheduler's run." ETV
vector 1 Network.user[1].queue "Queue before scheduler's run." ETV
vector 2 Network.user[2].queue "Queue before scheduler's run." ETV
vector 3 Network.user[3].queue "Queue before scheduler's run." ETV
vector 4 Network.user[4].queue "Queue before scheduler's run." ETV
vector 5 Network.user[5].queue "Queue before scheduler's run." ETV
vector 6 Network.user[6].queue "Queue before scheduler's run." ETV
vector 7 Network.user[7].queue "Queue before scheduler's run." ETV
vector 8 Network.user[8].queue "Queue before scheduler's run." ETV
vector 9 Network.user[9].queue "Queue before scheduler's run." ETV
vector 10 Network.scheduler "Scheduler free channels" ETV
vector 11 Network.scheduler "Total users' queues lengths" ETV
vector 12 Network.user[4].queue "Queue after scheduler's run." ETV
vector 13 Network.user[3].queue "Queue after scheduler's run." ETV
vector 14 Network.user[9].queue "Queue after scheduler's run." ETV
vector 15 Network.user[0].queue "Queue after scheduler's run." ETV
vector 16 Network.user[6].queue "Queue after scheduler's run." ETV
vector 17 Network.user[2].queue "Queue after scheduler's run." ETV
vector 18 Network.user[7].queue "Queue after scheduler's run." ETV
vector 19 Network.user[5].queue "Queue after scheduler's run." ETV
vector 20 Network.user[1].queue "Queue after scheduler's run." ETV
vector 21 Network.user[8].queue "Queue after scheduler's run." ETV
vector 22 Network.sink lifetime:vector ETV
attr interpolationmode none
attr title "lifetime of arrived jobs, vector"
attr unit s
0	42	0.001	2
0	153	0.002	3
0	265	0.003	3
0	372	0.004	2
0	482	0.005	3
0	597	0.006	3
0	709	0.007	2
0	819	0.008	3
0	932	0.009	3
0	1038	0.01	2
0	1149	0.011	3
0	1264	0.012	3
0	1372	0.013	2
0	1486	0.014	3
0	1597	0.015	3
0	1707	0.016	2
0	1816	0.017	3
0	1929	0.018	3
0	2044	0.019	3
0	2152	0.02	2
0	2266	0.021	3
0	2373	0.022	3
0	2483	0.023	2
0	2599	0.024	3
0	2709	0.025	3
0	2820	0.026	2
0	2930	0.027	3
0	3042	0.028	3
0	3149	0.029	2
0	3262	0.03	3
0	3375	0.031	3
0	3487	0.032	2
0	3598	0.033	3
0	3705	0.034	3
0	3822	0.035	3
0	3932	0.036	2
0	4039	0.037	3
0	4157	0.038	3
0	4265	0.039	2
0	4374	0.04	3
0	4488	0.041	3
0	4598	0.042	2
0	4709	0.043	3
0	4820	0.044	3
0	4931	0.045	2
0	5040	0.046	3
0	5153	0.047	3
0	5266	0.048	2
0	5377	0.049	3
0	5489	0.05	3
0	5600	0.051	3
0	5711	0.052	2
0	5822	0.053	3
0	5934	0.054	3
0	6042	0.055	2
0	6153	0.056	3
0	6270	0.057	3
0	6375	0.058	2
0	6486	0.059	3
0	6603	0.06	3
0	6711	0.061	2
0	6821	0.062	3
0	6933	0.063	3
0	7046	0.064	2
0	7155	0.065	3
0	7265	0.066	3
0	7378	0.067	2
0	7489	0.068	3
0	7599	0.069	3
0	7712	0.07	3
0	7824	0.071	2
0	7934	0.072	3
0	8045	0.073	3
0	8156	0.074	2
0	8266	0.075	3
0	8380	0.076	3
0	8487	0.077	2
0	8599	0.078	3
0	8717	0.079	3
0	8824	0.08	2
0	8932	0.081	3
0	9049	0.082	3
0	9158	0.083	2
0	9267	0.084	3
0	9382	0.085	3
0	9494	0.086	3
0	9600	0.087	2
0	9711	0.088	3
0	9827	0.089	3
0	9935	0.09	2
1	43	0.001	2
1	154	0.002	3
1	266	0.003	3
1	373	0.004	2
1	483	0.005	3
1	598	0.006	3
1	710	0.007	2
1	820	0.008	3
1	933	0.009	3
1	1039	0.01	2
1	1150	0.011	3
1	1265	0.012	3
1	1373	0.013	2
1	1487	0.014	3
1	1598	0.015	3
1	1708	0.016	2
1	1817	0.017	3
1	1930	0.018	3
1	2045	0.019	2
1	2153	0.02	3
1	2267	0.021	3
1	2374	0.022	2
1	2484	0.023	3
1	2600	0.024	3
1	2710	0.025	2
1	2821	0.026	3
1	2931	0.027	3
1	3043	0.028	2
1	3150	0.029	3
1	3263	0.03	3
1	3376	0.031	2
1	3488	0.032	3
1	3599	0.033	3
1	3706	0.034	2
1	3823	0.035	3
1	3933	0.036	3
1	4040	0.037	2
1	4158	0.038	3
1	4266	0.039	3
1	4375	0.04	2
1	4489	0.041	3
1	4599	0.042	3
1	4710	0.043	2
1	4821	0.044	3
1	4932	0.045	3
1	5041	0.046	2
1	5154	0.047	3
1	5267	0.048	3
1	5378	0.049	3
1	5490	0.05	2
1	5601	0.051	3
1	5712	0.052	3
1	5823	0.053	2
1	5935	0.054	3
1	6043	0.055	3
1	6154	0.056	2
1	6271	0.057	3
1	6376	0.058	3
1	6487	0.059	2
1	6604	0.06	3
1	6712	0.061	3
1	6822	0.062	2
1	6934	0.063	3
1	7047	0.064	3
1	7156	0.065	2
1	7266	0.066	3
1	7379	0.067	3
1	7490	0.068	2
1	7600	0.069	3
1	7713	0.07	3
1	7825	0.071	2
1	7935	0.072	3
1	8046	0.073	3
1	8157	0.074	2
1	8267	0.075	3
1	8381	0.076	3
1	8488	0.077	2
1	8600	0.078	3
1	8718	0.079	3
1	8825	0.08	2
1	8933	0.081	3
1	9050	0.082	3
1	9159	0.083	2
1	9268	0.084	3
1	9383	0.085	3
1	9495	0.086	2
1	9601	0.087	3
1	9712	0.088	3
1	9828	0.089	2
1	9936	0.09	3
2	44	0.001	2
2	155	0.002	3
2	267	0.003	2
2	374	0.004	3
2	484	0.005	3
2	599	0.006	2
2	711	0.007	3
2	821	0.008	3
2	934	0.009	2
2	1040	0.01	3
2	1151	0.011	2
2	1266	0.012	3
2	1374	0.013	3
2	1488	0.014	2
2	1599	0.015	3
2	1709	0.016	3
2	1818	0.017	2
2	1931	0.018	3
2	2046	0.019	3
2	2154	0.02	2
2	2268	0.021	3
2	2375	0.022	2
2	2485	0.023	3
2	2601	0.024	3
2	2711	0.025	2
2	2822	0.026	3
2	2932	0.027	3
2	3044	0.028	2
2	3151	0.029	3
2	3264	0.03	3
2	3377	0.031	2
2	3489	0.032	3
2	3600	0.033	2
2	3707	0.034	3
2	3824	0.035	3
2	3934	0.036	2
2	4041	0.037	3
2	4159	0.038	3
2	4267	0.039	2
2	4376	0.04	3
2	4490	0.041	3
2	4600	0.042	2
2	4711	0.043	3
2	4822	0.044	2
2	4933	0.045	3
2	5042	0.046	3
2	5155	0.047	2
2	5268	0.048	3
2	5379	0.049	3
2	5491	0.05	2
2	5602	0.051	3
2	5713	0.052	3
2	5824	0.053	2
2	5936	0.054	3
2	6044	0.055	2
2	6155	0.056	3
2	6272	0.057	3
2	6377	0.058	2
2	6488	0.059	3
2	6605	0.06	3
2	6713	0.061	2
2	6823	0.062	3
2	6935	0.063	3
2	7048	0.064	2
2	7157	0.065	3
2	7267	0.066	2
2	7380	0.067	3
2	7491	0.068	3
2	7601	0.069	2
2	7714	0.07	3
2	7826	0.071	3
2	7936	0.072	2
2	8047	0.073	3
2	8158	0.074	3
2	8268	0.075	2
2	8382	0.076	3
2	8489	0.077	2
2	8601	0.078	3
2	8719	0.079	3
2	8826	0.08	2
2	8934	0.081	3
2	9051	0.082	3
2	9160	0.083	2
2	9269	0.084	3
2	9384	0.085	3
2	9496	0.086	2
2	9602	0.087	3
2	9713	0.088	2
2	9829	0.089	3
2	9937	0.09	3
3	45	0.001	2
3	156	0.002	3
3	268	0.003	2
3	375	0.004	3
3	485	0.005	2
3	600	0.006	3
3	712	0.007	3
3	822	0.008	2
3	935	0.009	3
3	1041	0.01	2
3	1152	0.011	3
3	1267	0.012	3
3	1375	0.013	2
3	1489	0.014	3
3	1600	0.015	2
3	1710	0.016	3
3	1819	0.017	2
3	1932	0.018	3
3	2047	0.019	3
3	2155	0.02	2
3	2269	0.021	3
3	2376	0.022	2
3	2486	0.023	3
3	2602	0.024	3
3	2712	0.025	2
3	2823	0.026	3
3	2933	0.027	2
3	3045	0.028	3
3	3152	0.029	2
3	3265	0.03	3
3	3378	0.031	3
3	3490	0.032	2
3	3601	0.033	3
3	3708	0.034	2
3	3825	0.035	3
3	3935	0.036	3
3	4042	0.037	2
3	4160	0.038	3
3	4268	0.039	2
3	4377	0.04	3
3	4491	0.041	3
3	4601	0.042	2
3	4712	0.043	3
3	4823	0.044	2
3	4934	0.045	3
3	5043	0.046	2
3	5156	0.047	3
3	5269	0.048	3
3	5380	0.049	2
3	5492	0.05	3
3	5603	0.051	2
3	5714	0.052	3
3	5825	0.053	3
3	5937	0.054	2
3	6045	0.055	3
3	6156	0.056	2
3	6273	0.057	3
3	6378	0.058	2
3	6489	0.059	3
3	6606	0.06	3
3	6714	0.061	2
3	6824	0.062	3
3	6936	0.063	2
3	7049	0.064	3
3	7158	0.065	3
3	7268	0.066	2
3	7381	0.067	3
3	7492	0.068	2
3	7602	0.069	3
3	7715	0.07	3
3	7827	0.071	2
3	7937	0.072	3
3	8048	0.073	2
3	8159	0.074	3
3	8269	0.075	2
3	8383	0.076	3
3	8490	0.077	3
3	8602	0.078	2
3	8720	0.079	3
3	8827	0.08	2
3	8935	0.081	3
3	9052	0.082	3
3	9161	0.083	2
3	9270	0.084	3
3	9385	0.085	2
3	9497	0.086	3
3	9603	0.087	2
3	9714	0.088	3
3	9830	0.089	3
3	9938	0.09	2
4	46	0.001	2
4	157	0.002	3
4	269	0.003	3
4	376	0.004	2
4	486	0.005	3
4	601	0.006	3
4	713	0.007	2
4	823	0.008	3
4	936	0.009	3
4	1042	0.01	2
4	1153	0.011	3
4	1268	0.012	3
4	1376	0.013	2
4	1490	0.014	3
4	1601	0.015	3
4	1711	0.016	2
4	1820	0.017	3
4	1933	0.018	3
4	2048	0.019	2
4	2156	0.02	3
4	2270	0.021	3
4	2377	0.022	2
4	2487	0.023	3
4	2603	0.024	3
4	2713	0.025	2
4	2824	0.026	3
4	2934	0.027	3
4	3046	0.028	2
4	3153	0.029	3
4	3266	0.03	3
4	3379	0.031	2
4	3491	0.032	3
4	3602	0.033	3
4	3709	0.034	2
4	3826	0.035	3
4	3936	0.036	3
4	4043	0.037	2
4	4161	0.038	3
4	4269	0.039	3
4	4378	0.04	2
4	4492	0.041	3
4	4602	0.042	3
4	4713	0.043	2
4	4824	0.044	3
4	4935	0.045	3
4	5044	0.046	2
4	5157	0.047	3
4	5270	0.048	3
4	5381	0.049	2
4	5493	0.05	3
4	5604	0.051	3
4	5715	0.052	2
4	5826	0.053	3
4	5938	0.054	3
4	6046	0.055	2
4	6157	0.056	3
4	6274	0.057	3
4	6379	0.058	2
4	6490	0.059	3
4	6607	0.06	3
4	6715	0.061	2
4	6825	0.062	3
4	6937	0.063	3
4	7050	0.064	2
4	7159	0.065	3
4	7269	0.066	3
4	7382	0.067	2
4	7493	0.068	3
4	7603	0.069	3
4	7716	0.07	2
4	7828	0.071	3
4	7938	0.072	3
4	8049	0.073	2
4	8160	0.074	3
4	8270	0.075	3
4	8384	0.076	2
4	8491	0.077	3
4	8603	0.078	3
4	8721	0.079	3
4	8828	0.08	2
4	8936	0.081	3
4	9053	0.082	3
4	9162	0.083	2
4	9271	0.084	3
4	9386	0.085	3
4	9498	0.086	2
4	9604	0.087	3
4	9715	0.088	3
4	9831	0.089	2
4	9939	0.09	3
5	47	0.001	2
5	158	0.002	3
5	270	0.003	2
5	377	0.004	3
5	487	0.005	2
5	602	0.006	3
5	714	0.007	3
5	824	0.008	2
5	937	0.009	3
5	1043	0.01	2
5	1154	0.011	3
5	1269	0.012	2
5	1377	0.013	3
5	1491	0.014	3
5	1602	0.015	2
5	1712	0.016	3
5	1821	0.017	2
5	1934	0.018	3
5	2049	0.019	3
5	2157	0.02	2
5	2271	0.021	3
5	2378	0.022	2
5	2488	0.023	3
5	2604	0.024	2
5	2714	0.025	3
5	2825	0.026	3
5	2935	0.027	2
5	3047	0.028	3
5	3154	0.029	2
5	3267	0.03	3
5	3380	0.031	2
5	3492	0.032	3
5	3603	0.033	3
5	3710	0.034	2
5	3827	0.035	3
5	3937	0.036	2
5	4044	0.037	3
5	4162	0.038	3
5	4270	0.039	2
5	4379	0.04	3
5	4493	0.041	2
5	4603	0.042	3
5	4714	0.043	2
5	4825	0.044	3
5	4936	0.045	3
5	5045	0.046	2
5	5158	0.047	3
5	5271	0.048	2
5	5382	0.049	3
5	5494	0.05	2
5	5605	0.051	3
5	5716	0.052	3
5	5827	0.053	2
5	5939	0.054	3
5	6047	0.055	2
5	6158	0.056	3
5	6275	0.057	3
5	6380	0.058	2
5	6491	0.059	3
5	6608	0.06	2
5	6716	0.061	3
5	6826	0.062	2
5	6938	0.063	3
5	7051	0.064	3
5	7160	0.065	2
5	7270	0.066	3
5	7383	0.067	2
5	7494	0.068	3
5	7604	0.069	2
5	7717	0.07	3
5	7829	0.071	3
5	7939	0.072	2
5	8050	0.073	3
5	8161	0.074	2
5	8271	0.075	3
5	8385	0.076	3
5	8492	0.077	2
5	8604	0.078	3
5	8722	0.079	2
5	8829	0.08	3
5	8937	0.081	2
5	9054	0.082	3
5	9163	0.083	3
5	9272	0.084	2
5	9387	0.085	3
5	9499	0.086	2
5	9605	0.087	3
5	9716	0.088	2
5	9832	0.089	3
5	9940	0.09	3
6	48	0.001	2
6	159	0.002	3
6	271	0.003	3
6	378	0.004	2
6	488	0.005	3
6	603	0.006	3
6	715	0.007	2
6	825	0.008	3
6	938	0.009	3
6	1044	0.01	2
6	1155	0.011	3
6	1270	0.012	3
6	1378	0.013	2
6	1492	0.014	3
6	1603	0.015	3
6	1713	0.016	3
6	1822	0.017	2
6	1935	0.018	3
6	2050	0.019	3
6	2158	0.02	2
6	2272	0.021	3
6	2379	0.022	3
6	2489	0.023	2
6	2605	0.024	3
6	2715	0.025	3
6	2826	0.026	2
6	2936	0.027	3
6	3048	0.028	3
6	3155	0.029	2
6	3268	0.03	3
6	3381	0.031	3
6	3493	0.032	3
6	3604	0.033	2
6	3711	0.034	3
6	3828	0.035	3
6	3938	0.036	2
6	4045	0.037	3
6	4163	0.038	3
6	4271	0.039	2
6	4380	0.04	3
6	4494	0.041	3
6	4604	0.042	2
6	4715	0.043	3
6	4826	0.044	3
6	4937	0.045	2
6	5046	0.046	3
6	5159	0.047	3
6	5272	0.048	3
6	5383	0.049	2
6	5495	0.05	3
6	5606	0.051	3
6	5717	0.052	2
6	5828	0.053	3
6	5940	0.054	3
6	6048	0.055	2
6	6159	0.056	3
6	6276	0.057	3
6	6381	0.058	2
6	6492	0.059	3
6	6609	0.06	3
6	6717	0.061	2
6	6827	0.062	3
6	6939	0.063	3
6	7052	0.064	3
6	7161	0.065	2
6	7271	0.066	3
6	7384	0.067	3
6	7495	0.068	2
6	7605	0.069	3
6	7718	0.07	3
6	7830	0.071	2
6	7940	0.072	3
6	8051	0.073	3
6	8162	0.074	2
6	8272	0.075	3
6	8386	0.076	3
6	8493	0.077	2
6	8605	0.078	3
6	8723	0.079	3
6	8830	0.08	3
6	8938	0.081	2
6	9055	0.082	3
6	9164	0.083	3
6	9273	0.084	2
6	9388	0.085	3
6	9500	0.086	3
6	9606	0.087	2
6	9717	0.088	3
6	9833	0.089	3
6	9941	0.09	2
7	49	0.001	2
7	160	0.002	3
7	272	0.003	2
7	379	0.004	3
7	489	0.005	2
7	604	0.006	3
7	716	0.007	3
7	826	0.008	2
7	939	0.009	3
7	1045	0.01	2
7	1156	0.011	3
7	1271	0.012	3
7	1379	0.013	2
7	1493	0.014	3
7	1604	0.015	2
7	1714	0.016	3
7	1823	0.017	2
7	1936	0.018	3
7	2051	0.019	3
7	2159	0.02	2
7	2273	0.021	3
7	2380	0.022	2
7	2490	0.023	3
7	2606	0.024	3
7	2716	0.025	2
7	2827	0.026	3
7	2937	0.027	2
7	3049	0.028	3
7	3156	0.029	2
7	3269	0.03	3
7	3382	0.031	3
7	3494	0.032	2
7	3605	0.033	3
7	3712	0.034	2
7	3829	0.035	3
7	3939	0.036	3
7	4046	0.037	2
7	4164	0.038	3
7	4272	0.039	2
7	4381	0.04	3
7	4495	0.041	2
7	4605	0.042	3
7	4716	0.043	3
7	4827	0.044	2
7	4938	0.045	3
7	5047	0.046	2
7	5160	0.047	3
7	5273	0.048	3
7	5384	0.049	2
7	5496	0.05	3
7	5607	0.051	2
7	5718	0.052	3
7	5829	0.053	2
7	5941	0.054	3
7	6049	0.055	3
7	6160	0.056	2
7	6277	0.057	3
7	6382	0.058	2
7	6493	0.059	3
7	6610	0.06	3
7	6718	0.061	2
7	6828	0.062	3
7	6940	0.063	2
7	7053	0.064	3
7	7162	0.065	2
7	7272	0.066	3
7	7385	0.067	3
7	7496	0.068	2
7	7606	0.069	3
7	7719	0.07	2
7	7831	0.071	3
7	7941	0.072	3
7	8052	0.073	2
7	8163	0.074	3
7	8273	0.075	2
7	8387	0.076	3
7	8494	0.077	2
7	8606	0.078	3
7	8724	0.079	3
7	8831	0.08	2
7	8939	0.081	3
7	9056	0.082	2
7	9165	0.083	3
7	9274	0.084	3
7	9389	0.085	2
7	9501	0.086	3
7	9607	0.087	2
7	9718	0.088	3
7	9834	0.089	3
7	9942	0.09	2
8	50	0.001	2
8	161	0.002	3
8	273	0.003	3
8	380	0.004	2
8	490	0.005	3
8	605	0.006	3
8	717	0.007	3
8	827	0.008	2
8	940	0.009	3
8	1046	0.01	3
8	1157	0.011	2
8	1272	0.012	3
8	1380	0.013	3
8	1494	0.014	3
8	1605	0.015	2
8	1715	0.016	3
8	1824	0.017	3
8	1937	0.018	2
8	2052	0.019	3
8	2160	0.02	3
8	2274	0.021	3
8	2381	0.022	2
8	2491	0.023	3
8	2607	0.024	3
8	2717	0.025	3
8	2828	0.026	2
8	2938	0.027	3
8	3050	0.028	3
8	3157	0.029	2
8	3270	0.03	3
8	3383	0.031	3
8	3495	0.032	3
8	3606	0.033	2
8	3713	0.034	3
8	3830	0.035	3
8	3940	0.036	2
8	4047	0.037	3
8	4165	0.038	3
8	4273	0.039	3
8	4382	0.04	2
8	4496	0.041	3
8	4606	0.042	3
8	4717	0.043	3
8	4828	0.044	2
8	4939	0.045	3
8	5048	0.046	3
8	5161	0.047	2
8	5274	0.048	3
8	5385	0.049	3
8	5497	0.05	3
8	5608	0.051	2
8	5719	0.052	3
8	5830	0.053	3
8	5942	0.054	2
8	6050	0.055	3
8	6161	0.056	3
8	6278	0.057	3
8	6383	0.058	2
8	6494	0.059	3
8	6611	0.06	3
8	6719	0.061	3
8	6829	0.062	2
8	6941	0.063	3
8	7054	0.064	3
8	7163	0.065	2
8	7273	0.066	3
8	7386	0.067	3
8	7497	0.068	3
8	7607	0.069	2
8	7720	0.07	3
8	7832	0.071	3
8	7942	0.072	2
8	8053	0.073	3
8	8164	0.074	3
8	8274	0.075	3
8	8388	0.076	2
8	8495	0.077	3
8	8607	0.078	3
8	8725	0.079	3
8	8832	0.08	2
8	8940	0.081	3
8	9057	0.082	3
8	9166	0.083	2
8	9275	0.084	3
8	9390	0.085	3
8	9502	0.086	3
8	9608	0.087	2
8	9719	0.088	3
8	9835	0.089	3
8	9943	0.09	2
9	51	0.001	2
9	162	0.002	3
9	274	0.003	2
9	381	0.004	3
9	491	0.005	3
9	606	0.006	2
9	718	0.007	3
9	828	0.008	3
9	941	0.009	2
9	1047	0.01	3
9	1158	0.011	3
9	1273	0.012	2
9	1381	0.013	3
9	1495	0.014	3
9	1606	0.015	2
9	1716	0.016	3
9	1825	0.017	3
9	1938	0.018	2
9	2053	0.019	3
9	2161	0.02	3
9	2275	0.021	2
9	2382	0.022	3
9	2492	0.023	3
9	2608	0.024	2
9	2718	0.025	3
9	2829	0.026	3
9	2939	0.027	2
9	3051	0.028	3
9	3158	0.029	3
9	3271	0.03	2
9	3384	0.031	3
9	3496	0.032	3
9	3607	0.033	2
9	3714	0.034	3
9	3831	0.035	3
9	3941	0.036	2
9	4048	0.037	3
9	4166	0.038	3
9	4274	0.039	2
9	4383	0.04	3
9	4497	0.041	3
9	4607	0.042	2
9	4718	0.043	3
9	4829	0.044	3
9	4940	0.045	2
9	5049	0.046	3
9	5162	0.047	3
9	5275	0.048	2
9	5386	0.049	3
9	5498	0.05	3
9	5609	0.051	2
9	5720	0.052	3
9	5831	0.053	3
9	5943	0.054	2
9	6051	0.055	3
9	6162	0.056	3
9	6279	0.057	2
9	6384	0.058	3
9	6495	0.059	3
9	6612	0.06	2
9	6720	0.061	3
9	6830	0.062	3
9	6942	0.063	2
9	7055	0.064	3
9	7164	0.065	3
9	7274	0.066	2
9	7387	0.067	3
9	7498	0.068	3
9	7608	0.069	2
9	7721	0.07	3
9	7833	0.071	3
9	7943	0.072	2
9	8054	0.073	3
9	8165	0.074	3
9	8275	0.075	2
9	8389	0.076	3
9	8496	0.077	3
9	8608	0.078	2
9	8726	0.079	3
9	8833	0.08	3
9	8941	0.081	2
9	9058	0.082	3
9	9167	0.083	3
9	9276	0.084	2
9	9391	0.085	3
9	9503	0.086	3
9	9609	0.087	2
9	9720	0.088	3
9	9836	0.089	3
9	9944	0.09	2
10	61	0.001	10
10	172	0.002	0
10	284	0.003	5
10	391	0.004	5
10	501	0.005	3
10	616	0.006	2
10	728	0.007	4
10	838	0.008	4
10	951	0.009	2
10	1057	0.01	7
10	1168	0.011	2
10	1283	0.012	2
10	1391	0.013	6
10	1505	0.014	1
10	1616	0.015	5
10	1726	0.016	3
10	1835	0.017	5
10	1948	0.018	2
10	2063	0.019	2
10	2171	0.02	6
10	2285	0.021	1
10	2392	0.022	7
10	2502	0.023	2
10	2618	0.024	2
10	2728	0.025	5
10	2839	0.026	3
10	2949	0.027	4
10	3061	0.028	3
10	3168	0.029	6
10	3281	0.03	1
10	3394	0.031	4
10	3506	0.032	3
10	3617	0.033	4
10	3724	0.034	5
10	3841	0.035	0
10	3951	0.036	6
10	4058	0.037	4
10	4176	0.038	0
10	4284	0.039	7
10	4393	0.04	3
10	4507	0.041	2
10	4617	0.042	5
10	4728	0.043	3
10	4839	0.044	4
10	4950	0.045	3
10	5059	0.046	5
10	5172	0.047	2
10	5285	0.048	3
10	5396	0.049	4
10	5508	0.05	3
10	5619	0.051	4
10	5730	0.052	3
10	5841	0.053	4
10	5953	0.054	3
10	6061	0.055	5
10	6172	0.056	3
10	6289	0.057	1
10	6394	0.058	8
10	6505	0.059	1
10	6622	0.06	2
10	6730	0.061	6
10	6840	0.062	3
10	6952	0.063	3
10	7065	0.064	3
10	7174	0.065	5
10	7284	0.066	3
10	7397	0.067	3
10	7508	0.068	4
10	7618	0.069	4
10	7731	0.07	2
10	7843	0.071	4
10	7953	0.072	4
10	8064	0.073	3
10	8175	0.074	4
10	8285	0.075	4
10	8399	0.076	2
10	8506	0.077	6
10	8618	0.078	2
10	8736	0.079	1
10	8843	0.08	7
10	8951	0.081	3
10	9068	0.082	1
10	9177	0.083	6
10	9286	0.084	3
10	9401	0.085	2
10	9513	0.086	4
10	9619	0.087	6
10	9730	0.088	2
10	9846	0.089	2
10	9954	0.09	6
11	61	0.001	0
11	172	0.002	0
11	284	0.003	0
11	391	0.004	0
11	501	0.005	0
11	616	0.006	0
11	728	0.007	0
11	838	0.008	0
11	951	0.009	0
11	1057	0.01	0
11	1168	0.011	0
11	1283	0.012	0
11	1391	0.013	0
11	1505	0.014	0
11	1616	0.015	0
11	1726	0.016	0
11	1835	0.017	0
11	1948	0.018	0
11	2063	0.019	0
11	2171	0.02	0
11	2285	0.021	0
11	2392	0.022	0
11	2502	0.023	0
11	2618	0.024	0
11	2728	0.025	0
11	2839	0.026	0
11	2949	0.027	0
11	3061	0.028	0
11	3168	0.029	0
11	3281	0.03	0
11	3394	0.031	0
11	3506	0.032	0
11	3617	0.033	0
11	3724	0.034	0
11	3841	0.035	0
11	3951	0.036	0
11	4058	0.037	0
11	4176	0.038	0
11	4284	0.039	0
11	4393	0.04	0
11	4507	0.041	0
11	4617	0.042	0
11	4728	0.043	0
11	4839	0.044	0
11	4950	0.045	0
11	5059	0.046	0
11	5172	0.047	0
11	5285	0.048	0
11	5396	0.049	0
11	5508	0.05	0
11	5619	0.051	0
11	5730	0.052	0
11	5841	0.053	0
11	5953	0.054	0
11	6061	0.055	0
11	6172	0.056	0
11	6289	0.057	0
11	6394	0.058	0
11	6505	0.059	0
11	6622	0.06	0
11	6730	0.061	0
11	6840	0.062	0
11	6952	0.063	0
11	7065	0.064	0
11	7174	0.065	0
11	7284	0.066	0
11	7397	0.067	0
11	7508	0.068	0
11	7618	0.069	0
11	7731	0.07	0
11	7843	0.071	0
11	7953	0.072	0
11	8064	0.073	0
11	8175	0.074	0
11	8285	0.075	0
11	8399	0.076	0
11	8506	0.077	0
11	8618	0.078	0
11	8736	0.079	0
11	8843	0.08	0
11	8951	0.081	0
11	9068	0.082	0
11	9177	0.083	0
11	9286	0.084	0
11	9401	0.085	0
11	9513	0.086	0
11	9619	0.087	0
11	9730	0.088	0
11	9846	0.089	0
11	9954	0.09	0
12	62	0.001	0
12	173	0.002	0
12	285	0.003	0
12	392	0.004	0
12	502	0.005	0
12	617	0.006	0
12	729	0.007	0
12	839	0.008	0
12	952	0.009	0
12	1058	0.01	0
12	1169	0.011	0
12	1284	0.012	0
12	1392	0.013	0
12	1506	0.014	0
12	1617	0.015	0
12	1727	0.016	0
12	1836	0.017	0
12	1949	0.018	0
12	2064	0.019	0
12	2172	0.02	0
12	2286	0.021	0
12	2393	0.022	0
12	2503	0.023	0
12	2619	0.024	0
12	2729	0.025	0
12	2840	0.026	0
12	2950	0.027	0
12	3062	0.028	0
12	3169	0.029	0
12	3282	0.03	0
12	3395	0.031	0
12	3507	0.032	0
12	3618	0.033	0
12	3725	0.034	0
12	3842	0.035	0
12	3952	0.036	0
12	4059	0.037	0
12	4177	0.038	0
12	4285	0.039	0
12	4394	0.04	0
12	4508	0.041	0
12	4618	0.042	0
12	4729	0.043	0
12	4840	0.044	0
12	4951	0.045	0
12	5060	0.046	0
12	5173	0.047	0
12	5286	0.048	0
12	5397	0.049	0
12	5509	0.05	0
12	5620	0.051	0
12	5731	0.052	0
12	5842	0.053	0
12	5954	0.054	0
12	6062	0.055	0
12	6173	0.056	0
12	6290	0.057	0
12	6395	0.058	0
12	6506	0.059	0
12	6623	0.06	0
12	6731	0.061	0
12	6841	0.062	0
12	6953	0.063	0
12	7066	0.064	0
12	7175	0.065	0
12	7285	0.066	0
12	7398	0.067	0
12	7509	0.068	0
12	7619	0.069	0
12	7732	0.07	0
12	7844	0.071	0
12	7954	0.072	0
12	8065	0.073	0
12	8176	0.074	0
12	8286	0.075	0
12	8400	0.076	0
12	8507	0.077	0
12	8619	0.078	0
12	8737	0.079	0
12	8844	0.08	0
12	8952	0.081	0
12	9069	0.082	0
12	9178	0.083	0
12	9287	0.084	0
12	9402	0.085	0
12	9514	0.086	0
12	9620	0.087	0
12	9731	0.088	0
12	9847	0.089	0
12	9955	0.09	0
13	63	0.001	0
13	174	0.002	0
13	286	0.003	0
13	393	0.004	0
13	503	0.005	0
13	618	0.006	0
13	730	0.007	0
13	840	0.008	0
13	953	0.009	0
13	1059	0.01	0
13	1170	0.011	0
13	1285	0.012	0
13	1393	0.013	0
13	1507	0.014	0
13	1618	0.015	0
13	1728	0.016	0
13	1837	0.017	0
13	1950	0.018	0
13	2065	0.019	0
13	2173	0.02	0
13	2287	0.021	0
13	2394	0.022	0
13	2504	0.023	0
13	2620	0.024	0
13	2730	0.025	0
13	2841	0.026	0
13	2951	0.027	0
13	3063	0.028	0
13	3170	0.029	0
13	3283	0.03	0
13	3396	0.031	0
13	3508	0.032	0
13	3619	0.033	0
13	3726	0.034	0
13	3843	0.035	0
13	3953	0.036	0
13	4060	0.037	0
13	4178	0.038	0
13	4286	0.039	0
13	4395	0.04	0
13	4509	0.041	0
13	4619	0.042	0
13	4730	0.043	0
13	4841	0.044	0
13	4952	0.045	0
13	5061	0.046	0
13	5174	0.047	0
13	5287	0.048	0
13	5398	0.049	0
13	5510	0.05	0
13	5621	0.051	0
13	5732	0.052	0
13	5843	0.053	0
13	5955	0.054	0
13	6063	0.055	0
13	6174	0.056	0
13	6291	0.057	0
13	6396	0.058	0
13	6507	0.059	0
13	6624	0.06	0
13	6732	0.061	0
13	6842	0.062	0
13	6954	0.063	0
13	7067	0.064	0
13	7176	0.065	0
13	7286	0.066	0
13	7399	0.067	0
13	7510	0.068	0
13	7620	0.069	0
13	7733	0.07	0
13	7845	0.071	0
13	7955	0.072	0
13	8066	0.073	0
13	8177	0.074	0
13	8287	0.075	0
13	8401	0.076	0
13	8508	0.077	0
13	8620	0.078	0
13	8738	0.079	0
13	8845	0.08	0
13	8953	0.081	0
13	9070	0.082	0
13	9179	0.083	0
13	9288	0.084	0
13	9403	0.085	0
13	9515	0.086	0
13	9621	0.087	0
13	9732	0.088	0
13	9848	0.089	0
13	9956	0.09	0
14	64	0.001	0
14	175	0.002	0
14	287	0.003	0
14	394	0.004	0
14	504	0.005	0
14	619	0.006	0
14	731	0.007	0
14	841	0.008	0
14	954	0.009	0
14	1060	0.01	0
14	1171	0.011	0
14	1286	0.012	0
14	1394	0.013	0
14	1508	0.014	0
14	1619	0.015	0
14	1729	0.016	0
14	1838	0.017	0
14	1951	0.018	0
14	2066	0.019	0
14	2174	0.02	0
14	2288	0.021	0
14	2395	0.022	0
14	2505	0.023	0
14	2621	0.024	0
14	2731	0.025	0
14	2842	0.026	0
14	2952	0.027	0
14	3064	0.028	0
14	3171	0.029	0
14	3284	0.03	0
14	3397	0.031	0
14	3509	0.032	0
14	3620	0.033	0
14	3727	0.034	0
14	3844	0.035	0
14	3954	0.036	0
14	4061	0.037	0
14	4179	0.038	0
14	4287	0.039	0
14	4396	0.04	0
14	4510	0.041	0
14	4620	0.042	0
14	4731	0.043	0
14	4842	0.044	0
14	4953	0.045	0
14	5062	0.046	0
14	5175	0.047	0
14	5288	0.048	0
14	5399	0.049	0
14	5511	0.05	0
14	5622	0.051	0
14	5733	0.052	0
14	5844	0.053	0
14	5956	0.054	0
14	6064	0.055	0
14	6175	0.056	0
14	6292	0.057	0
14	6397	0.058	0
14	6508	0.059	0
14	6625	0.06	0
14	6733	0.061	0
14	6843	0.062	0
14	6955	0.063	0
14	7068	0.064	0
14	7177	0.065	0
14	7287	0.066	0
14	7400	0.067	0
14	7511	0.068	0
14	7621	0.069	0
14	7734	0.07	0
14	7846	0.071	0
14	7956	0.072	0
14	8067	0.073	0
14	8178	0.074	0
14	8288	0.075	0
14	8402	0.076	0
14	8509	0.077	0
14	8621	0.078	0
14	8739	0.079	0
14	8846	0.08	0
14	8954	0.081	0
14	9071	0.082	0
14	9180	0.083	0
14	9289	0.084	0
14	9404	0.085	0
14	9516	0.086	0
14	9622	0.087	0
14	9733	0.088	0
14	9849	0.089	0
14	9957	0.09	0
15	65	0.001	0
15	176	0.002	0
15	288	0.003	0
15	395	0.004	0
15	505	0.005	0
15	620	0.006	0
15	732	0.007	0
15	842	0.008	0
15	955	0.009	0
15	1061	0.01	0
15	1172	0.011	0
15	1287	0.012	0
15	1395	0.013	0
15	1509	0.014	0
15	1620	0.015	0
15	1730	0.016	0
15	1839	0.017	0
15	1952	0.018	0
15	2067	0.019	0
15	2175	0.02	0
15	2289	0.021	0
15	2396	0.022	0
15	2506	0.023	0
15	2622	0.024	0
15	2732	0.025	0
15	2843	0.026	0
15	2953	0.027	0
15	3065	0.028	0
15	3172	0.029	0
15	3285	0.03	0
15	3398	0.031	0
15	3510	0.032	0
15	3621	0.033	0
15	3728	0.034	0
15	3845	0.035	0
15	3955	0.036	0
15	4062	0.037	0
15	4180	0.038	0
15	4288	0.039	0
15	4397	0.04	0
15	4511	0.041	0
15	4621	0.042	0
15	4732	0.043	0
15	4843	0.044	0
15	4954	0.045	0
15	5063	0.046	0
15	5176	0.047	0
15	5289	0.048	0
15	5400	0.049	0
15	5512	0.05	0
15	5623	0.051	0
15	5734	0.052	0
15	5845	0.053	0
15	5957	0.054	0
15	6065	0.055	0
15	6176	0.056	0
15	6293	0.057	0
15	6398	0.058	0
15	6509	0.059	0
15	6626	0.06	0
15	6734	0.061	0
15	6844	0.062	0
15	6956	0.063	0
15	7069	0.064	0
15	7178	0.065	0
15	7288	0.066	0
15	7401	0.067	0
15	7512	0.068	0
15	7622	0.069	0
15	7735	0.07	0
15	7847	0.071	0
15	7957	0.072	0
15	8068	0.073	0
15	8179	0.074	0
15	8289	0.075	0
15	8403	0.076	0
15	8510	0.077	0
15	8622	0.078	0
15	8740	0.079	0
15	8847	0.08	0
15	8955	0.081	0
15	9072	0.082	0
15	9181	0.083	0
15	9290	0.084	0
15	9405	0.085	0
15	9517	0.086	0
15	9623	0.087	0
15	9734	0.088	0
15	9850	0.089	0
15	9958	0.09	0
16	66	0.001	0
16	177	0.002	0
16	289	0.003	0
16	396	0.004	0
16	506	0.005	0
16	621	0.006	0
16	733	0.007	0
16	843	0.008	0
16	956	0.009	0
16	1062	0.01	0
16	1173	0.011	0
16	1288	0.012	0
16	1396	0.013	0
16	1510	0.014	0
16	1621	0.015	0
16	1731	0.016	0
16	1840	0.017	0
16	1953	0.018	0
16	2068	0.019	0
16	2176	0.02	0
16	2290	0.021	0
16	2397	0.022	0
16	2507	0.023	0
16	2623	0.024	0
16	2733	0.025	0
16	2844	0.026	0
16	2954	0.027	0
16	3066	0.028	0
16	3173	0.029	0
16	3286	0.03	0
16	3399	0.031	0
16	3511	0.032	0
16	3622	0.033	0
16	3729	0.034	0
16	3846	0.035	0
16	3956	0.036	0
16	4063	0.037	0
16	4181	0.038	0
16	4289	0.039	0
16	4398	0.04	0
16	4512	0.041	0
16	4622	0.042	0
16	4733	0.043	0
16	4844	0.044	0
16	4955	0.045	0
16	5064	0.046	0
16	5177	0.047	0
16	5290	0.048	0
16	5401	0.049	0
16	5513	0.05	0
16	5624	0.051	0
16	5735	0.052	0
16	5846	0.053	0
16	5958	0.054	0
16	6066	0.055	0
16	6177	0.056	0
16	6294	0.057	0
16	6399	0.058	0
16	6510	0.059	0
16	6627	0.06	0
16	6735	0.061	0
16	6845	0.062	0
16	6957	0.063	0
16	7070	0.064	0
16	7179	0.065	0
16	7289	0.066	0
16	7402	0.067	0
16	7513	0.068	0
16	7623	0.069	0
16	7736	0.07	0
16	7848	0.071	0
16	7958	0.072	0
16	8069	0.073	0
16	8180	0.074	0
16	8290	0.075	0
16	8404	0.076	0
16	8511	0.077	0
16	8623	0.078	0
16	8741	0.079	0
16	8848	0.08	0
16	8956	0.081	0
16	9073	0.082	0
16	9182	0.083	0
16	9291	0.084	0
16	9406	0.085	0
16	9518	0.086	0
16	9624	0.087	0
16	9735	0.088	0
16	9851	0.089	0
16	9959	0.09	0
17	67	0.001	0
17	178	0.002	0
17	290	0.003	0
17	397	0.004	0
17	507	0.005	0
17	622	0.006	0
17	734	0.007	0
17	844	0.008	0
17	957	0.009	0
17	1063	0.01	0
17	1174	0.011	0
17	1289	0.012	0
17	1397	0.013	0
17	1511	0.014	0
17	1622	0.015	0
17	1732	0.016	0
17	1841	0.017	0
17	1954	0.018	0
17	2069	0.019	0
17	2177	0.02	0
17	2291	0.021	0
17	2398	0.022	0
17	2508	0.023	0
17	2624	0.024	0
17	2734	0.025	0
17	2845	0.026	0
17	2955	0.027	0
17	3067	0.028	0
17	3174	0.029	0
17	3287	0.03	0
17	3400	0.031	0
17	3512	0.032	0
17	3623	0.033	0
17	3730	0.034	0
17	3847	0.035	0
17	3957	0.036	0
17	4064	0.037	0
17	4182	0.038	0
17	4290	0.039	0
17	4399	0.04	0
17	4513	0.041	0
17	4623	0.042	0
17	4734	0.043	0
17	4845	0.044	0
17	4956	0.045	0
17	5065	0.046	0
17	5178	0.047	0
17	5291	0.048	0
17	5402	0.049	0
17	5514	0.05	0
17	5625	0.051	0
17	5736	0.052	0
17	5847	0.053	0
17	5959	0.054	0
17	6067	0.055	0
17	6178	0.056	0
17	6295	0.057	0
17	6400	0.058	0
17	6511	0.059	0
17	6628	0.06	0
17	6736	0.061	0
17	6846	0.062	0
17	6958	0.063	0
17	7071	0.064	0
17	7180	0.065	0
17	7290	0.066	0
17	7403	0.067	0
17	7514	0.068	0
17	7624	0.069	0
17	7737	0.07	0
17	7849	0.071	0
17	7959	0.072	0
17	8070	0.073	0
17	8181	0.074	0
17	8291	0.075	0
17	8405	0.076	0
17	8512	0.077	0
17	8624	0.078	0
17	8742	0.079	0
17	8849	0.08	0
17	8957	0.081	0
17	9074	0.082	0
17	9183	0.083	0
17	9292	0.084	0
17	9407	0.085	0
17	9519	0.086	0
17	9625	0.087	0
17	9736	0.088	0
17	9852	0.089	0
17	9960	0.09	0
18	68	0.001	0
18	179	0.002	0
18	291	0.003	0
18	398	0.004	0
18	508	0.005	0
18	623	0.006	0
18	735	0.007	0
18	845	0.008	0
18	958	0.009	0
18	1064	0.01	0
18	1175	0.011	0
18	1290	0.012	0
18	1398	0.013	0
18	1512	0.014	0
18	1623	0.015	0
18	1733	0.016	0
18	1842	0.017	0
18	1955	0.018	0
18	2070	0.019	0
18	2178	0.02	0
18	2292	0.021	0
18	2399	0.022	0
18	2509	0.023	0
18	2625	0.024	0
18	2735	0.025	0
18	2846	0.026	0
18	2956	0.027	0
18	3068	0.028	0
18	3175	0.029	0
18	3288	0.03	0
18	3401	0.031	0
18	3513	0.032	0
18	3624	0.033	0
18	3731	0.034	0
18	3848	0.035	0
18	3958	0.036	0
18	4065	0.037	0
18	4183	0.038	0
18	4291	0.039	0
18	4400	0.04	0
18	4514	0.041	0
18	4624	0.042	0
18	4735	0.043	0
18	4846	0.044	0
18	4957	0.045	0
18	5066	0.046	0
18	5179	0.047	0
18	5292	0.048	0
18	5403	0.049	0
18	5515	0.05	0
18	5626	0.051	0
18	5737	0.052	0
18	5848	0.053	0
18	5960	0.054	0
18	6068	0.055	0
18	6179	0.056	0
18	6296	0.057	0
18	6401	0.058	0
18	6512	0.059	0
18	6629	0.06	0
18	6737	0.061	0
18	6847	0.062	0
18	6959	0.063	0
18	7072	0.064	0
18	7181	0.065	0
18	7291	0.066	0
18	7404	0.067	0
18	7515	0.068	0
18	7625	0.069	0
18	7738	0.07	0
18	7850	0.071	0
18	7960	0.072	0
18	8071	0.073	0
18	8182	0.074	0
18	8292	0.075	0
18	8406	0.076	0
18	8513	0.077	0
18	8625	0.078	0
18	8743	0.079	0
18	8850	0.08	0
18	8958	0.081	0
18	9075	0.082	0
18	9184	0.083	0
18	9293	0.084	0
18	9408	0.085	0
18	9520	0.086	0
18	9626	0.087	0
18	9737	0.088	0
18	9853	0.089	0
18	9961	0.09	0
19	69	0.001	0
19	180	0.002	0
19	292	0.003	0
19	399	0.004	0
19	509	0.005	0
19	624	0.006	0
19	736	0.007	0
19	846	0.008	0
19	959	0.009	0
19	1065	0.01	0
19	1176	0.011	0
19	1291	0.012	0
19	1399	0.013	0
19	1513	0.014	0
19	1624	0.015	0
19	1734	0.016	0
19	1843	0.017	0
19	1956	0.018	0
19	2071	0.019	0
19	2179	0.02	0
19	2293	0.021	0
19	2400	0.022	0
19	2510	0.023	0
19	2626	0.024	0
19	2736	0.025	0
19	2847	0.026	0
19	2957	0.027	0
19	3069	0.028	0
19	3176	0.029	0
19	3289	0.03	0
19	3402	0.031	0
19	3514	0.032	0
19	3625	0.033	0
19	3732	0.034	0
19	3849	0.035	0
19	3959	0.036	0
19	4066	0.037	0
19	4184	0.038	0
19	4292	0.039	0
19	4401	0.04	0
19	4515	0.041	0
19	4625	0.042	0
19	4736	0.043	0
19	4847	0.044	0
19	4958	0.045	0
19	5067	0.046	0
19	5180	0.047	0
19	5293	0.048	0
19	5404	0.049	0
19	5516	0.05	0
19	5627	0.051	0
19	5738	0.052	0
19	5849	0.053	0
19	5961	0.054	0
19	6069	0.055	0
19	6180	0.056	0
19	6297	0.057	0
19	6402	0.058	0
19	6513	0.059	0
19	6630	0.06	0
19	6738	0.061	0
19	6848	0.062	0
19	6960	0.063	0
19	7073	0.064	0
19	7182	0.065	0
19	7292	0.066	0
19	7405	0.067	0
19	7516	0.068	0
19	7626	0.069	0
19	7739	0.07	0
19	7851	0.071	0
19	7961	0.072	0
19	8072	0.073	0
19	8183	0.074	0
19	8293	0.075	0
19	8407	0.076	0
19	8514	0.077	0
19	8626	0.078	0
19	8744	0.079	0
19	8851	0.08	0
19	8959	0.081	0
19	9076	0.082	0
19	9185	0.083	0
19	9294	0.084	0
19	9409	0.085	0
19	9521	0.086	0
19	9627	0.087	0
19	9738	0.088	0
19	9854	0.089	0
19	9962	0.09	0
20	70	0.001	0
20	181	0.002	0
20	293	0.003	0
20	400	0.004	0
20	510	0.005	0
20	625	0.006	0
20	737	0.007	0
20	847	0.008	0
20	960	0.009	0
20	1066	0.01	0
20	1177	0.011	0
20	1292	0.012	0
20	1400	0.013	0
20	1514	0.014	0
20	1625	0.015	0
20	1735	0.016	0
20	1844	0.017	0
20	1957	0.018	0
20	2072	0.019	0
20	2180	0.02	0
20	2294	0.021	0
20	2401	0.022	0
20	2511	0.023	0
20	2627	0.024	0
20	2737	0.025	0
20	2848	0.026	0
20	2958	0.027	0
20	3070	0.028	0
20	3177	0.029	0
20	3290	0.03	0
20	3403	0.031	0
20	3515	0.032	0
20	3626	0.033	0
20	3733	0.034	0
20	3850	0.035	0
20	3960	0.036	0
20	4067	0.037	0
20	4185	0.038	0
20	4293	0.039	0
20	4402	0.04	0
20	4516	0.041	0
20	4626	0.042	0
20	4737	0.043	0
20	4848	0.044	0
20	4959	0.045	0
20	5068	0.046	0
20	5181	0.047	0
20	5294	0.048	0
20	5405	0.049	0
20	5517	0.05	0
20	5628	0.051	0
20	5739	0.052	0
20	5850	0.053	0
20	5962	0.054	0
20	6070	0.055	0
20	6181	0.056	0
20	6298	0.057	0
20	6403	0.058	0
20	6514	0.059	0
20	6631	0.06	0
20	6739	0.061	0
20	6849	0.062	0
20	6961	0.063	0
20	7074	0.064	0
20	7183	0.065	0
20	7293	0.066	0
20	7406	0.067	0
20	7517	0.068	0
20	7627	0.069	0
20	7740	0.07	0
20	7852	0.071	0
20	7962	0.072	0
20	8073	0.073	0
20	8184	0.074	0
20	8294	0.075	0
20	8408	0.076	0
20	8515	0.077	0
20	8627	0.078	0
20	8745	0.079	0
20	8852	0.08	0
20	8960	0.081	0
20	9077	0.082	0
20	9186	0.083	0
20	9295	0.084	0
20	9410	0.085	0
20	9522	0.086	0
20	9628	0.087	0
20	9739	0.088	0
20	9855	0.089	0
20	9963	0.09	0
21	71	0.001	0
21	182	0.002	1
21	183	0.002	0
21	294	0.003	1
21	295	0.003	0
21	401	0.004	0
21	511	0.005	1
21	512	0.005	0
21	626	0.006	1
21	627	0.006	0
21	738	0.007	1
21	739	0.007	0
21	848	0.008	0
21	961	0.009	1
21	962	0.009	0
21	1067	0.01	1
21	1068	0.01	0
21	1178	0.011	0
21	1293	0.012	1
21	1294	0.012	0
21	1401	0.013	1
21	1402	0.013	0
21	1515	0.014	1
21	1516	0.014	0
21	1626	0.015	0
21	1736	0.016	1
21	1737	0.016	0
21	1845	0.017	1
21	1846	0.017	0
21	1958	0.018	0
21	2073	0.019	1
21	2074	0.019	0
21	2181	0.02	1
21	2182	0.02	0
21	2295	0.021	1
21	2296	0.021	0
21	2402	0.022	0
21	2512	0.023	1
21	2513	0.023	0
21	2628	0.024	1
21	2629	0.024	0
21	2738	0.025	1
21	2739	0.025	0
21	2849	0.026	0
21	2959	0.027	1
21	2960	0.027	0
21	3071	0.028	1
21	3072	0.028	0
21	3178	0.029	0
21	3291	0.03	1
21	3292	0.03	0
21	3404	0.031	1
21	3405	0.031	0
21	3516	0.032	1
21	3517	0.032	0
21	3627	0.033	0
21	3734	0.034	1
21	3735	0.034	0
21	3851	0.035	1
21	3852	0.035	0
21	3961	0.036	0
21	4068	0.037	1
21	4069	0.037	0
21	4186	0.038	1
21	4187	0.038	0
21	4294	0.039	1
21	4295	0.039	0
21	4403	0.04	0
21	4517	0.041	1
21	4518	0.041	0
21	4627	0.042	1
21	4628	0.042	0
21	4738	0.043	1
21	4739	0.043	0
21	4849	0.044	0
21	4960	0.045	1
21	4961	0.045	0
21	5069	0.046	1
21	5070	0.046	0
21	5182	0.047	0
21	5295	0.048	1
21	5296	0.048	0
21	5406	0.049	1
21	5407	0.049	0
21	5518	0.05	1
21	5519	0.05	0
21	5629	0.051	0
21	5740	0.052	1
21	5741	0.052	0
21	5851	0.053	1
21	5852	0.053	0
21	5963	0.054	0
21	6071	0.055	1
21	6072	0.055	0
21	6182	0.056	1
21	6183	0.056	0
21	6299	0.057	1
21	6300	0.057	0
21	6404	0.058	0
21	6515	0.059	1
21	6516	0.059	0
21	6632	0.06	1
21	6633	0.06	0
21	6740	0.061	1
21	6741	0.061	0
21	6850	0.062	0
21	6962	0.063	1
21	6963	0.063	0
21	7075	0.064	1
21	7076	0.064	0
21	7184	0.065	0
21	7294	0.066	1
21	7295	0.066	0
21	7407	0.067	1
21	7408	0.067	0
21	7518	0.068	1
21	7519	0.068	0
21	7628	0.069	0
21	7741	0.07	1
21	7742	0.07	0
21	7853	0.071	1
21	7854	0.071	0
21	7963	0.072	0
21	8074	0.073	1
21	8075	0.073	0
21	8185	0.074	1
21	8186	0.074	0
21	8295	0.075	1
21	8296	0.075	0
21	8409	0.076	0
21	8516	0.077	1
21	8517	0.077	0
21	8628	0.078	1
21	8629	0.078	0
21	8746	0.079	1
21	8747	0.079	0
21	8853	0.08	0
21	8961	0.081	1
21	8962	0.081	0
21	9078	0.082	1
21	9079	0.082	0
21	9187	0.083	0
21	9296	0.084	1
21	9297	0.084	0
21	9411	0.085	1
21	9412	0.085	0
21	9523	0.086	1
21	9524	0.086	0
21	9629	0.087	0
21	9740	0.088	1
21	9741	0.088	0
21	9856	0.089	1
21	9857	0.089	0
21	9964	0.09	0
22	72	0.001	0.0006256049
22	73	0.001	0.0002512098
22	74	0.001	0.000613262727
22	75	0.001	0.000226525454
22	76	0.001	0.000624728975
22	77	0.001	0.00024945795
22	78	0.001	0.000627775302
22	79	0.001	0.000255550604
22	80	0.001	0.00062792821
22	81	0.001	0.00025585642
22	82	0.001	0.000620545651
22	83	0.001	0.000241091302
22	84	0.001	0.000613063607
22	85	0.001	0.000226127214
22	86	0.001	0.00061233402
22	87	0.001	0.00022466804
22	88	0.001	0.000626014507
22	89	0.001	0.000252029014
22	90	0.001	0.000632574288
22	91	0.001	0.000265148576
22	184	0.002	0.0008768147
22	185	0.002	0.0005024196
22	186	0.002	0.0001280245
22	187	0.002	0.000839788181
22	188	0.002	0.000453050908
22	189	0.002	6.6313635e-005
22	190	0.002	0.000874186925
22	191	0.002	0.0004989159
22	192	0.002	0.000123644875
22	193	0.002	0.000883325906
22	194	0.002	0.000511101208
22	195	0.002	0.00013887651
22	196	0.002	0.00088378463
22	197	0.002	0.00051171284
22	198	0.002	0.00013964105
22	199	0.002	0.000861636953
22	200	0.002	0.000482182604
22	201	0.002	0.000102728255
22	202	0.002	0.000839190821
22	203	0.002	0.000452254428
22	204	0.002	6.5318035e-005
22	205	0.002	0.00083700206
22	206	0.002	0.00044933608
22	207	0.002	6.16701e-005
22	208	0.002	0.000878043521
22	209	0.002	0.000504058028
22	210	0.002	0.000130072535
22	211	0.002	0.000897722864
22	212	0.002	0.000530297152
22	213	0.002	0.00016287144
22	296	0.003	0.0007536294
22	297	0.003	0.0003792343
22	298	0.003	4.8392e-006
22	299	0.003	0.000679576362
22	300	0.003	0.000292839089
22	301	0.003	0.00074837385
22	302	0.003	0.000373102825
22	303	0.003	0.000766651812
22	304	0.003	0.000394427114
22	305	0.003	2.2202416e-005
22	306	0.003	0.00076756926
22	307	0.003	0.00039549747
22	308	0.003	2.342568e-005
22	309	0.003	0.000723273906
22	310	0.003	0.000343819557
22	311	0.003	0.000678381642
22	312	0.003	0.000291445249
22	313	0.003	0.00067400412
22	314	0.003	0.00028633814
22	315	0.003	0.000756087042
22	316	0.003	0.000382101549
22	317	0.003	8.116056e-006
22	318	0.003	0.000795445728
22	319	0.003	0.000428020016
22	320	0.003	6.0594304e-005
22	402	0.004	0.0006304441
22	403	0.004	0.000256049
22	404	0.004	0.000906101816
22	405	0.004	0.000519364543
22	406	0.004	0.00013262727
22	407	0.004	0.0009978318
22	408	0.004	0.000622560775
22	409	0.004	0.00024728975
22	410	0.004	0.000649977718
22	411	0.004	0.00027775302
22	412	0.004	0.00065135389
22	413	0.004	0.0002792821
22	414	0.004	0.000964365208
22	415	0.004	0.000584910859
22	416	0.004	0.00020545651
22	417	0.004	0.000904508856
22	418	0.004	0.000517572463
22	419	0.004	0.00013063607
22	420	0.004	0.00089867216
22	421	0.004	0.00051100618
22	422	0.004	0.0001233402
22	423	0.004	0.000634130563
22	424	0.004	0.00026014507
22	425	0.004	0.000693168592
22	426	0.004	0.00032574288
22	513	0.005	0.0008816539
22	514	0.005	0.0005072588
22	515	0.005	0.0001328637
22	516	0.005	0.000745889997
22	517	0.005	0.000359152724
22	518	0.005	0.000872018725
22	519	0.005	0.0004967477
22	520	0.005	0.000121476675
22	521	0.005	0.000905528322
22	522	0.005	0.000533303624
22	523	0.005	0.000161078926
22	524	0.005	0.00090721031
22	525	0.005	0.00053513852
22	526	0.005	0.00016306673
22	527	0.005	0.000826002161
22	528	0.005	0.000446547812
22	529	0.005	6.7093463e-005
22	530	0.005	0.000743699677
22	531	0.005	0.000356763284
22	532	0.005	0.00073567422
22	533	0.005	0.00034800824
22	534	0.005	0.000886159577
22	535	0.005	0.000512174084
22	536	0.005	0.000138188591
22	537	0.005	0.000958317168
22	538	0.005	0.000590891456
22	539	0.005	0.000223465744
22	628	0.006	0.0007584686
22	629	0.006	0.0003840735
22	630	0.006	9.6784e-006
22	631	0.006	0.000972415451
22	632	0.006	0.000585678178
22	633	0.006	0.000198940905
22	634	0.006	0.00074620565
22	635	0.006	0.000370934625
22	636	0.006	0.000788854228
22	637	0.006	0.00041662953
22	638	0.006	4.4404832e-005
22	639	0.006	0.00079099494
22	640	0.006	0.00041892315
22	641	0.006	4.685136e-005
22	642	0.006	0.000687639114
22	643	0.006	0.000308184765
22	644	0.006	0.000969826891
22	645	0.006	0.000582890498
22	646	0.006	0.000195954105
22	647	0.006	0.00096034226
22	648	0.006	0.00057267628
22	649	0.006	0.0001850103
22	650	0.006	0.000764203098
22	651	0.006	0.000390217605
22	652	0.006	1.6232112e-005
22	653	0.006	0.000856040032
22	654	0.006	0.00048861432
22	655	0.006	0.000121188608
22	740	0.007	0.0006352833
22	741	0.007	0.0002608882
22	742	0.007	0.000812203632
22	743	0.007	0.000425466359
22	744	0.007	3.8729086e-005
22	745	0.007	0.0009956636
22	746	0.007	0.000620392575
22	747	0.007	0.00024512155
22	748	0.007	0.000672180134
22	749	0.007	0.000299955436
22	750	0.007	0.00067477957
22	751	0.007	0.00030270778
22	752	0.007	0.000928730416
22	753	0.007	0.000549276067
22	754	0.007	0.000169821718
22	755	0.007	0.000809017712
22	756	0.007	0.000422081319
22	757	0.007	3.5144926e-005
22	758	0.007	0.00079734432
22	759	0.007	0.00040967834
22	760	0.007	2.201236e-005
22	761	0.007	0.000642246619
22	762	0.007	0.000268261126
22	763	0.007	0.000753762896
22	764	0.007	0.000386337184
22	765	0.007	1.8911472e-005
22	849	0.008	0.0008864931
22	850	0.008	0.000512098
22	851	0.008	0.0001377029
22	852	0.008	0.000651991813
22	853	0.008	0.00026525454
22	854	0.008	0.000869850525
22	855	0.008	0.0004945795
22	856	0.008	0.000119308475
22	857	0.008	0.000927730738
22	858	0.008	0.00055550604
22	859	0.008	0.000183281342
22	860	0.008	0.00093063599
22	861	0.008	0.0005585642
22	862	0.008	0.00018649241
22	863	0.008	0.000790367369
22	864	0.008	0.00041091302
22	865	0.008	3.1458671e-005
22	866	0.008	0.000648208533
22	867	0.008	0.00026127214
22	868	0.008	0.00063434638
22	869	0.008	0.0002466804
22	870	0.008	0.000894275633
22	871	0.008	0.00052029014
22	872	0.008	0.000146304647
22	873	0.008	0.00065148576
22	874	0.008	0.000284060048
22	963	0.009	0.0007633078
22	964	0.009	0.0003889127
22	965	0.009	1.45176e-005
22	966	0.009	0.000878517267
22	967	0.009	0.000491779994
22	968	0.009	0.000105042721
22	969	0.009	0.00074403745
22	970	0.009	0.000368766425
22	971	0.009	0.000811056644
22	972	0.009	0.000438831946
22	973	0.009	6.6607248e-005
22	974	0.009	0.00081442062
22	975	0.009	0.00044234883
22	976	0.009	7.027704e-005
22	977	0.009	0.000652004322
22	978	0.009	0.000272549973
22	979	0.009	0.000874335747
22	980	0.009	0.000487399354
22	981	0.009	0.000100462961
22	982	0.009	0.00085901442
22	983	0.009	0.00047134844
22	984	0.009	8.368246e-005
22	985	0.009	0.000772319154
22	986	0.009	0.000398333661
22	987	0.009	2.4348168e-005
22	988	0.009	0.000916634336
22	989	0.009	0.000549208624
22	990	0.009	0.000181782912
22	1069	0.01	0.0006401225
22	1070	0.01	0.0002657274
22	1071	0.01	0.000718305448
22	1072	0.01	0.000331568175
22	1073	0.01	0.0009934954
22	1074	0.01	0.000618224375
22	1075	0.01	0.00024295335
22	1076	0.01	0.00069438255
22	1077	0.01	0.000322157852
22	1078	0.01	0.00069820525
22	1079	0.01	0.00032613346
22	1080	0.01	0.000893095624
22	1081	0.01	0.000513641275
22	1082	0.01	0.000134186926
22	1083	0.01	0.000713526568
22	1084	0.01	0.000326590175
22	1085	0.01	0.00069601648
22	1086	0.01	0.0003083505
22	1087	0.01	0.000650362675
22	1088	0.01	0.000276377182
22	1089	0.01	0.0008143572
22	1090	0.01	0.000446931488
22	1091	0.01	7.9505776e-005
22	1179	0.011	0.0008913323
22	1180	0.011	0.0005169372
22	1181	0.011	0.0001425421
22	1182	0.011	0.000944830902
22	1183	0.011	0.000558093629
22	1184	0.011	0.000171356356
22	1185	0.011	0.000867682325
22	1186	0.011	0.0004924113
22	1187	0.011	0.000117140275
22	1188	0.011	0.000949933154
22	1189	0.011	0.000577708456
22	1190	0.011	0.000205483758
22	1191	0.011	0.00095406167
22	1192	0.011	0.00058198988
22	1193	0.011	0.00020991809
22	1194	0.011	0.000754732577
22	1195	0.011	0.000375278228
22	1196	0.011	0.000939653782
22	1197	0.011	0.000552717389
22	1198	0.011	0.000165780996
22	1199	0.011	0.00092068452
22	1200	0.011	0.00053301854
22	1201	0.011	0.00014535256
22	1202	0.011	0.000902391689
22	1203	0.011	0.000528406196
22	1204	0.011	0.000154420703
22	1205	0.011	0.000712080064
22	1206	0.011	0.000344654352
22	1295	0.012	0.000768147
22	1296	0.012	0.0003937519
22	1297	0.012	1.93568e-005
22	1298	0.012	0.000784619083
22	1299	0.012	0.00039788181
22	1300	0.012	1.1144537e-005
22	1301	0.012	0.00074186925
22	1302	0.012	0.000366598225
22	1303	0.012	0.00083325906
22	1304	0.012	0.000461034362
22	1305	0.012	8.8809664e-005
22	1306	0.012	0.0008378463
22	1307	0.012	0.00046577451
22	1308	0.012	9.370272e-005
22	1309	0.012	0.000995823879
22	1310	0.012	0.00061636953
22	1311	0.012	0.000236915181
22	1312	0.012	0.000778844603
22	1313	0.012	0.00039190821
22	1314	0.012	4.971817e-006
22	1315	0.012	0.00075768658
22	1316	0.012	0.0003700206
22	1317	0.012	0.00078043521
22	1318	0.012	0.000406449717
22	1319	0.012	3.2464224e-005
22	1320	0.012	0.00097722864
22	1321	0.012	0.000609802928
22	1322	0.012	0.000242377216
22	1403	0.013	0.0006449617
22	1404	0.013	0.0002705666
22	1405	0.013	0.000624407264
22	1406	0.013	0.000237669991
22	1407	0.013	0.0009913272
22	1408	0.013	0.000616056175
22	1409	0.013	0.00024078515
22	1410	0.013	0.000716584966
22	1411	0.013	0.000344360268
22	1412	0.013	0.00072163093
22	1413	0.013	0.00034955914
22	1414	0.013	0.000857460832
22	1415	0.013	0.000478006483
22	1416	0.013	9.8552134e-005
22	1417	0.013	0.000618035424
22	1418	0.013	0.000231099031
22	1419	0.013	0.00098235462
22	1420	0.013	0.00059468864
22	1421	0.013	0.00020702266
22	1422	0.013	0.000658478731
22	1423	0.013	0.000284493238
22	1424	0.013	0.000874951504
22	1425	0.013	0.000507525792
22	1426	0.013	0.00014010008
22	1517	0.014	0.0008961715
22	1518	0.014	0.0005217764
22	1519	0.014	0.0001473813
22	1520	0.014	0.000850932718
22	1521	0.014	0.000464195445
22	1522	0.014	7.7458172e-005
22	1523	0.014	0.000865514125
22	1524	0.014	0.0004902431
22	1525	0.014	0.000114972075
22	1526	0.014	0.00097213557
22	1527	0.014	0.000599910872
22	1528	0.014	0.000227686174
22	1529	0.014	0.00097748735
22	1530	0.014	0.00060541556
22	1531	0.014	0.00023334377
22	1532	0.014	0.000719097785
22	1533	0.014	0.000339643436
22	1534	0.014	0.000844162638
22	1535	0.014	0.000457226245
22	1536	0.014	7.0289852e-005
22	1537	0.014	0.00081935668
22	1538	0.014	0.0004316907
22	1539	0.014	4.402472e-005
22	1540	0.014	0.000910507745
22	1541	0.014	0.000536522252
22	1542	0.014	0.000162536759
22	1543	0.014	0.000772674368
22	1544	0.014	0.000405248656
22	1545	0.014	3.7822944e-005
22	1627	0.015	0.0007729862
22	1628	0.015	0.0003985911
22	1629	0.015	2.4196e-005
22	1630	0.015	0.000690720899
22	1631	0.015	0.000303983626
22	1632	0.015	0.00073970105
22	1633	0.015	0.000364430025
22	1634	0.015	0.000855461476
22	1635	0.015	0.000483236778
22	1636	0.015	0.00011101208
22	1637	0.015	0.00086127198
22	1638	0.015	0.00048920019
22	1639	0.015	0.0001171284
22	1640	0.015	0.000960189087
22	1641	0.015	0.000580734738
22	1642	0.015	0.000201280389
22	1643	0.015	0.000683353459
22	1644	0.015	0.000296417066
22	1645	0.015	0.00065635874
22	1646	0.015	0.00026869276
22	1647	0.015	0.000788551266
22	1648	0.015	0.000414565773
22	1649	0.015	4.058028e-005
22	1650	0.015	0.000670397232
22	1651	0.015	0.00030297152
22	1738	0.016	0.0006498009
22	1739	0.016	0.0002754058
22	1740	0.016	0.000917246353
22	1741	0.016	0.00053050908
22	1742	0.016	0.000143771807
22	1743	0.016	0.000989159
22	1744	0.016	0.000613887975
22	1745	0.016	0.00023861695
22	1746	0.016	0.000738787382
22	1747	0.016	0.000366562684
22	1748	0.016	0.00074505661
22	1749	0.016	0.00037298482
22	1750	0.016	9.1303e-007
22	1751	0.016	0.00082182604
22	1752	0.016	0.000442371691
22	1753	0.016	6.2917342e-005
22	1754	0.016	0.000909480673
22	1755	0.016	0.00052254428
22	1756	0.016	0.000135607887
22	1757	0.016	0.00088102678
22	1758	0.016	0.0004933608
22	1759	0.016	0.00010569482
22	1760	0.016	0.000666594787
22	1761	0.016	0.000292609294
22	1762	0.016	0.000935545808
22	1763	0.016	0.000568120096
22	1764	0.016	0.000200694384
22	1847	0.017	0.0009010107
22	1848	0.017	0.0005266156
22	1849	0.017	0.0001522205
22	1850	0.017	0.000757034534
22	1851	0.017	0.000370297261
22	1852	0.017	0.000863345925
22	1853	0.017	0.0004880749
22	1854	0.017	0.000112803875
22	1855	0.017	0.000994337986
22	1856	0.017	0.000622113288
22	1857	0.017	0.00024988859
22	1858	0.017	0.00062884124
22	1859	0.017	0.00025676945
22	1860	0.017	0.000683462993
22	1861	0.017	0.000304008644
22	1862	0.017	0.000748671494
22	1863	0.017	0.000361735101
22	1864	0.017	0.00071802884
22	1865	0.017	0.00033036286
22	1866	0.017	0.000918623801
22	1867	0.017	0.000544638308
22	1868	0.017	0.000170652815
22	1869	0.017	0.000833268672
22	1870	0.017	0.00046584296
22	1871	0.017	9.8417248e-005
22	1959	0.018	0.0007778254
22	1960	0.018	0.0004034303
22	1961	0.018	2.90352e-005
22	1962	0.018	0.000983559988
22	1963	0.018	0.000596822715
22	1964	0.018	0.000210085442
22	1965	0.018	0.00073753285
22	1966	0.018	0.000362261825
22	1967	0.018	0.000877663892
22	1968	0.018	0.000505439194
22	1969	0.018	0.000133214496
22	1970	0.018	0.00088469766
22	1971	0.018	0.00051262587
22	1972	0.018	0.00014055408
22	1973	0.018	0.000924554295
22	1974	0.018	0.000545099946
22	1975	0.018	0.000165645597
22	1976	0.018	0.000974798708
22	1977	0.018	0.000587862315
22	1978	0.018	0.000200925922
22	1979	0.018	0.00094269688
22	1980	0.018	0.0005550309
22	1981	0.018	0.00016736492
22	1982	0.018	0.000796667322
22	1983	0.018	0.000422681829
22	1984	0.018	4.8696336e-005
22	1985	0.018	0.000730991536
22	1986	0.018	0.000363565824
22	2075	0.019	0.0006546401
22	2076	0.019	0.000280245
22	2077	0.019	0.000823348169
22	2078	0.019	0.000436610896
22	2079	0.019	4.9873623e-005
22	2080	0.019	0.0009869908
22	2081	0.019	0.000611719775
22	2082	0.019	0.00023644875
22	2083	0.019	0.000760989798
22	2084	0.019	0.0003887651
22	2085	0.019	1.6540402e-005
22	2086	0.019	0.00076848229
22	2087	0.019	0.0003964105
22	2088	0.019	2.433871e-005
22	2089	0.019	0.000786191248
22	2090	0.019	0.000406736899
22	2091	0.019	2.728255e-005
22	2092	0.019	0.000813989529
22	2093	0.019	0.000427053136
22	2094	0.019	4.0116743e-005
22	2095	0.019	0.00077969894
22	2096	0.019	0.00039203296
22	2097	0.019	4.36698e-006
22	2098	0.019	0.000674710843
22	2099	0.019	0.00030072535
22	2100	0.019	0.000996140112
22	2101	0.019	0.0006287144
22	2102	0.019	0.000261288688
22	2183	0.02	0.0009058499
22	2184	0.02	0.0005314548
22	2185	0.02	0.0001570597
22	2186	0.02	0.00066313635
22	2187	0.02	0.000276399077
22	2188	0.02	0.000861177725
22	2189	0.02	0.0004859067
22	2190	0.02	0.000110635675
22	2191	0.02	0.000644315704
22	2192	0.02	0.000272091006
22	2193	0.02	0.00065226692
22	2194	0.02	0.00028019513
22	2195	0.02	0.000647828201
22	2196	0.02	0.000268373852
22	2197	0.02	0.00065318035
22	2198	0.02	0.000266243957
22	2199	0.02	0.000616701
22	2200	0.02	0.00022903502
22	2201	0.02	0.000926739857
22	2202	0.02	0.000552754364
22	2203	0.02	0.000178768871
22	2204	0.02	0.000893862976
22	2205	0.02	0.000526437264
22	2206	0.02	0.000159011552
22	2297	0.021	0.0007826646
22	2298	0.021	0.0004082695
22	2299	0.021	3.38744e-005
22	2300	0.021	0.000889661804
22	2301	0.021	0.000502924531
22	2302	0.021	0.000116187258
22	2303	0.021	0.00073536465
22	2304	0.021	0.000360093625
22	2305	0.021	0.000899866308
22	2306	0.021	0.00052764161
22	2307	0.021	0.000155416912
22	2308	0.021	0.00090812334
22	2309	0.021	0.00053605155
22	2310	0.021	0.00016397976
22	2311	0.021	0.000888919503
22	2312	0.021	0.000509465154
22	2313	0.021	0.000130010805
22	2314	0.021	0.000879307564
22	2315	0.021	0.000492371171
22	2316	0.021	0.000105434778
22	2317	0.021	0.00084136904
22	2318	0.021	0.00045370306
22	2319	0.021	6.603708e-005
22	2320	0.021	0.000804783378
22	2321	0.021	0.000430797885
22	2322	0.021	5.6812392e-005
22	2323	0.021	0.00079158584
22	2324	0.021	0.000424160128
22	2325	0.021	5.6734416e-005
22	2403	0.022	0.0006594793
22	2404	0.022	0.0002850842
22	2405	0.022	0.000729449985
22	2406	0.022	0.000342712712
22	2407	0.022	0.0009848226
22	2408	0.022	0.000609551575
22	2409	0.022	0.00023428055
22	2410	0.022	0.000783192214
22	2411	0.022	0.000410967516
22	2412	0.022	3.8742818e-005
22	2413	0.022	0.00079190797
22	2414	0.022	0.00041983618
22	2415	0.022	4.776439e-005
22	2416	0.022	0.000750556456
22	2417	0.022	0.000371102107
22	2418	0.022	0.000718498385
22	2419	0.022	0.000331561992
22	2420	0.022	0.0006783711
22	2421	0.022	0.00029070512
22	2422	0.022	0.000682826899
22	2423	0.022	0.000308841406
22	2424	0.022	0.000689308704
22	2425	0.022	0.000321882992
22	2514	0.023	0.0009106891
22	2515	0.023	0.000536294
22	2516	0.023	0.0001618989
22	2517	0.023	0.000955975439
22	2518	0.023	0.000569238166
22	2519	0.023	0.000182500893
22	2520	0.023	0.000859009525
22	2521	0.023	0.0004837385
22	2522	0.023	0.000108467475
22	2523	0.023	0.00066651812
22	2524	0.023	0.000294293422
22	2525	0.023	0.0006756926
22	2526	0.023	0.00030362081
22	2527	0.023	0.000991647758
22	2528	0.023	0.000612193409
22	2529	0.023	0.00023273906
22	2530	0.023	0.000944625599
22	2531	0.023	0.000557689206
22	2532	0.023	0.000170752813
22	2533	0.023	0.00090303914
22	2534	0.023	0.00051537316
22	2535	0.023	0.00012770718
22	2536	0.023	0.000934855913
22	2537	0.023	0.00056087042
22	2538	0.023	0.000186884927
22	2539	0.023	0.00095445728
22	2540	0.023	0.000587031568
22	2541	0.023	0.000219605856
22	2630	0.024	0.0007875038
22	2631	0.024	0.0004131087
22	2632	0.024	3.87136e-005
22	2633	0.024	0.00079576362
22	2634	0.024	0.000409026347
22	2635	0.024	2.2289074e-005
22	2636	0.024	0.00073319645
22	2637	0.024	0.000357925425
22	2638	0.024	0.000922068724
22	2639	0.024	0.000549844026
22	2640	0.024	0.000177619328
22	2641	0.024	0.00093154902
22	2642	0.024	0.00055947723
22	2643	0.024	0.00018740544
22	2644	0.024	0.000853284711
22	2645	0.024	0.000473830362
22	2646	0.024	9.4376013e-005
22	2647	0.024	0.00078381642
22	2648	0.024	0.000396880027
22	2649	0.024	9.943634e-006
22	2650	0.024	0.0007400412
22	2651	0.024	0.00035237522
22	2652	0.024	0.000812899434
22	2653	0.024	0.000438913941
22	2654	0.024	6.4928448e-005
22	2655	0.024	0.000852180144
22	2656	0.024	0.000484754432
22	2657	0.024	0.00011732872
22	2740	0.025	0.0006643185
22	2741	0.025	0.0002899234
22	2742	0.025	0.000635551801
22	2743	0.025	0.000248814528
22	2744	0.025	0.0009826544
22	2745	0.025	0.000607383375
22	2746	0.025	0.00023211235
22	2747	0.025	0.00080539463
22	2748	0.025	0.000433169932
22	2749	0.025	6.0945234e-005
22	2750	0.025	0.00081533365
22	2751	0.025	0.00044326186
22	2752	0.025	7.119007e-005
22	2753	0.025	0.000714921664
22	2754	0.025	0.000335467315
22	2755	0.025	0.000623007241
22	2756	0.025	0.000236070848
22	2757	0.025	0.00096470924
22	2758	0.025	0.00057704326
22	2759	0.025	0.00018937728
22	2760	0.025	0.000690942955
22	2761	0.025	0.000316957462
22	2762	0.025	0.000749903008
22	2763	0.025	0.000382477296
22	2764	0.025	1.5051584e-005
22	2850	0.026	0.0009155283
22	2851	0.026	0.0005411332
22	2852	0.026	0.0001667381
22	2853	0.026	0.000862077255
22	2854	0.026	0.000475339982
22	2855	0.026	8.8602709e-005
22	2856	0.026	0.000856841325
22	2857	0.026	0.0004815703
22	2858	0.026	0.000106299275
22	2859	0.026	0.000688720536
22	2860	0.026	0.000316495838
22	2861	0.026	0.00069911828
22	2862	0.026	0.00032704649
22	2863	0.026	0.000956012966
22	2864	0.026	0.000576558617
22	2865	0.026	0.000197104268
22	2866	0.026	0.000849134455
22	2867	0.026	0.000462198062
22	2868	0.026	7.5261669e-005
22	2869	0.026	0.0008017113
22	2870	0.026	0.00041404532
22	2871	0.026	2.637934e-005
22	2872	0.026	0.000942971969
22	2873	0.026	0.000568986476
22	2874	0.026	0.000195000983
22	2875	0.026	0.000647625872
22	2876	0.026	0.00028020016
22	2961	0.027	0.000792343
22	2962	0.027	0.0004179479
22	2963	0.027	4.35528e-005
22	2964	0.027	0.000701865436
22	2965	0.027	0.000315128163
22	2966	0.027	0.00073102825
22	2967	0.027	0.000355757225
22	2968	0.027	0.00094427114
22	2969	0.027	0.000572046442
22	2970	0.027	0.000199821744
22	2971	0.027	0.0009549747
22	2972	0.027	0.00058290291
22	2973	0.027	0.00021083112
22	2974	0.027	0.000817649919
22	2975	0.027	0.00043819557
22	2976	0.027	5.8741221e-005
22	2977	0.027	0.000688325276
22	2978	0.027	0.000301388883
22	2979	0.027	0.00063871336
22	2980	0.027	0.00025104738
22	2981	0.027	0.00082101549
22	2982	0.027	0.000447029997
22	2983	0.027	7.3044504e-005
22	2984	0.027	0.000912774448
22	2985	0.027	0.000545348736
22	2986	0.027	0.000177923024
22	3073	0.028	0.0006691577
22	3074	0.028	0.0002947626
22	3075	0.028	0.00092839089
22	3076	0.028	0.000541653617
22	3077	0.028	0.000154916344
22	3078	0.028	0.0009804862
22	3079	0.028	0.000605215175
22	3080	0.028	0.00022994415
22	3081	0.028	0.000827597046
22	3082	0.028	0.000455372348
22	3083	0.028	8.314765e-005
22	3084	0.028	0.00083875933
22	3085	0.028	0.00046668754
22	3086	0.028	9.461575e-005
22	3087	0.028	0.000679286872
22	3088	0.028	0.000299832523
22	3089	0.028	0.00091445249
22	3090	0.028	0.000527516097
22	3091	0.028	0.000140579704
22	3092	0.028	0.0008633814
22	3093	0.028	0.00047571542
22	3094	0.028	8.804944e-005
22	3095	0.028	0.000699059011
22	3096	0.028	0.000325073518
22	3097	0.028	0.000810497312
22	3098	0.028	0.0004430716
22	3099	0.028	7.5645888e-005
22	3179	0.029	0.0009203675
22	3180	0.029	0.0005459724
22	3181	0.029	0.0001715773
22	3182	0.029	0.000768179071
22	3183	0.029	0.000381441798
22	3184	0.029	0.000854673125
22	3185	0.029	0.0004794021
22	3186	0.029	0.000104131075
22	3187	0.029	0.000710922952
22	3188	0.029	0.000338698254
22	3189	0.029	0.00072254396
22	3190	0.029	0.00035047217
22	3191	0.029	0.000920378174
22	3192	0.029	0.000540923825
22	3193	0.029	0.000161469476
22	3194	0.029	0.000753643311
22	3195	0.029	0.000366706918
22	3196	0.029	0.00070038346
22	3197	0.029	0.00031271748
22	3198	0.029	0.000951088025
22	3199	0.029	0.000577102532
22	3200	0.029	0.000203117039
22	3201	0.029	0.000708220176
22	3202	0.029	0.000340794464
22	3293	0.03	0.0007971822
22	3294	0.03	0.0004227871
22	3295	0.03	4.8392e-005
22	3296	0.03	0.000994704525
22	3297	0.03	0.000607967252
22	3298	0.03	0.000221229979
22	3299	0.03	0.00072886005
22	3300	0.03	0.000353589025
22	3301	0.03	0.000966473556
22	3302	0.03	0.000594248858
22	3303	0.03	0.00022202416
22	3304	0.03	0.00097840038
22	3305	0.03	0.00060632859
22	3306	0.03	0.0002342568
22	3307	0.03	0.000782015127
22	3308	0.03	0.000402560778
22	3309	0.03	2.3106429e-005
22	3310	0.03	0.000979770525
22	3311	0.03	0.000592834132
22	3312	0.03	0.000205897739
22	3313	0.03	0.0009250515
22	3314	0.03	0.00053738552
22	3315	0.03	0.00014971954
22	3316	0.03	0.000829131546
22	3317	0.03	0.000455146053
22	3318	0.03	8.116056e-005
22	3319	0.03	0.000973368752
22	3320	0.03	0.00060594304
22	3321	0.03	0.000238517328
22	3406	0.031	0.0006739969
22	3407	0.031	0.0002996018
22	3408	0.031	0.000834492706
22	3409	0.031	0.000447755433
22	3410	0.031	6.101816e-005
22	3411	0.031	0.000978318
22	3412	0.031	0.000603046975
22	3413	0.031	0.00022777595
22	3414	0.031	0.000849799462
22	3415	0.031	0.000477574764
22	3416	0.031	0.000105350066
22	3417	0.031	0.00086218501
22	3418	0.031	0.00049011322
22	3419	0.031	0.00011804143
22	3420	0.031	0.00064365208
22	3421	0.031	0.000264197731
22	3422	0.031	0.000818961346
22	3423	0.031	0.000432024953
22	3424	0.031	4.508856e-005
22	3425	0.031	0.00076205356
22	3426	0.031	0.00037438758
22	3427	0.031	0.000707175067
22	3428	0.031	0.000333189574
22	3429	0.031	0.000871091616
22	3430	0.031	0.000503665904
22	3431	0.031	0.000136240192
22	3518	0.032	0.0009252067
22	3519	0.032	0.0005508116
22	3520	0.032	0.0001764165
22	3521	0.032	0.000674280887
22	3522	0.032	0.000287543614
22	3523	0.032	0.000852504925
22	3524	0.032	0.0004772339
22	3525	0.032	0.000101962875
22	3526	0.032	0.000733125368
22	3527	0.032	0.00036090067
22	3528	0.032	0.00074596964
22	3529	0.032	0.00037389785
22	3530	0.032	1.82606e-006
22	3531	0.032	0.000884743382
22	3532	0.032	0.000505289033
22	3533	0.032	0.000125834684
22	3534	0.032	0.000658152167
22	3535	0.032	0.000271215774
22	3536	0.032	0.0009867216
22	3537	0.032	0.00059905562
22	3538	0.032	0.00021138964
22	3539	0.032	0.000959204081
22	3540	0.032	0.000585218588
22	3541	0.032	0.000211233095
22	3542	0.032	0.00076881448
22	3543	0.032	0.000401388768
22	3544	0.032	3.3963056e-005
22	3628	0.033	0.0008020214
22	3629	0.033	0.0004276263
22	3630	0.033	5.32312e-005
22	3631	0.033	0.000900806341
22	3632	0.033	0.000514069068
22	3633	0.033	0.000127331795
22	3634	0.033	0.00072669185
22	3635	0.033	0.000351420825
22	3636	0.033	0.000988675972
22	3637	0.033	0.000616451274
22	3638	0.033	0.000244226576
22	3639	0.033	0.00062975427
22	3640	0.033	0.00025768248
22	3641	0.033	0.000746380335
22	3642	0.033	0.000366925986
22	3643	0.033	0.000884279381
22	3644	0.033	0.000497342988
22	3645	0.033	0.000110406595
22	3646	0.033	0.00082372366
22	3647	0.033	0.00043605768
22	3648	0.033	4.83917e-005
22	3649	0.033	0.000837247602
22	3650	0.033	0.000463262109
22	3651	0.033	8.9276616e-005
22	3652	0.033	0.000666537344
22	3653	0.033	0.000299111632
22	3736	0.034	0.0006788361
22	3737	0.034	0.000304441
22	3738	0.034	0.000740594522
22	3739	0.034	0.000353857249
22	3740	0.034	0.0009761498
22	3741	0.034	0.000600878775
22	3742	0.034	0.00022560775
22	3743	0.034	0.000872001878
22	3744	0.034	0.00049977718
22	3745	0.034	0.000127552482
22	3746	0.034	0.00088561069
22	3747	0.034	0.0005135389
22	3748	0.034	0.00014146711
22	3749	0.034	0.000987471637
22	3750	0.034	0.000608017288
22	3751	0.034	0.000228562939
22	3752	0.034	0.000723470202
22	3753	0.034	0.000336533809
22	3754	0.034	0.00066072572
22	3755	0.034	0.00027305974
22	3756	0.034	0.000715291123
22	3757	0.034	0.00034130563
22	3758	0.034	0.00093168592
22	3759	0.034	0.000564260208
22	3760	0.034	0.000196834496
22	3853	0.035	0.0009300459
22	3854	0.035	0.0005556508
22	3855	0.035	0.0001812557
22	3856	0.035	0.000967119976
22	3857	0.035	0.000580382703
22	3858	0.035	0.00019364543
22	3859	0.035	0.000850336725
22	3860	0.035	0.0004750657
22	3861	0.035	9.9794675e-005
22	3862	0.035	0.000755327784
22	3863	0.035	0.000383103086
22	3864	0.035	1.0878388e-005
22	3865	0.035	0.00076939532
22	3866	0.035	0.00039732353
22	3867	0.035	2.525174e-005
22	3868	0.035	0.00084910859
22	3869	0.035	0.000469654241
22	3870	0.035	9.0199892e-005
22	3871	0.035	0.000949597416
22	3872	0.035	0.000562661023
22	3873	0.035	0.00017572463
22	3874	0.035	0.00088539376
22	3875	0.035	0.00049772778
22	3876	0.035	0.0001100618
22	3877	0.035	0.000967320137
22	3878	0.035	0.000593334644
22	3879	0.035	0.000219349151
22	3880	0.035	0.000829408784
22	3881	0.035	0.000461983072
22	3882	0.035	9.455736e-005
22	3962	0.036	0.0008068606
22	3963	0.036	0.0004324655
22	3964	0.036	5.80704e-005
22	3965	0.036	0.000806908157
22	3966	0.036	0.000420170884
22	3967	0.036	3.3433611e-005
22	3968	0.036	0.00072452365
22	3969	0.036	0.000349252625
22	3970	0.036	0.00063865369
22	3971	0.036	0.000266428992
22	3972	0.036	0.00065317995
22	3973	0.036	0.00028110816
22	3974	0.036	0.000710745543
22	3975	0.036	0.000331291194
22	3976	0.036	0.000788788237
22	3977	0.036	0.000401851844
22	3978	0.036	1.4915451e-005
22	3979	0.036	0.00072239582
22	3980	0.036	0.00033472984
22	3981	0.036	0.000845363658
22	3982	0.036	0.000471378165
22	3983	0.036	9.7392672e-005
22	3984	0.036	0.000727131648
22	3985	0.036	0.000359705936
22	4070	0.037	0.0006836753
22	4071	0.037	0.0003092802
22	4072	0.037	0.000646696338
22	4073	0.037	0.000259959065
22	4074	0.037	0.0009739816
22	4075	0.037	0.000598710575
22	4076	0.037	0.00022343955
22	4077	0.037	0.000894204294
22	4078	0.037	0.000521979596
22	4079	0.037	0.000149754898
22	4080	0.037	0.00090903637
22	4081	0.037	0.00053696458
22	4082	0.037	0.00016489279
22	4083	0.037	0.000951836845
22	4084	0.037	0.000572382496
22	4085	0.037	0.000192928147
22	4086	0.037	0.000627979058
22	4087	0.037	0.000241042665
22	4088	0.037	0.00094706386
22	4089	0.037	0.00055939788
22	4090	0.037	0.0001717319
22	4091	0.037	0.000723407179
22	4092	0.037	0.000349421686
22	4093	0.037	0.000992280224
22	4094	0.037	0.000624854512
22	4095	0.037	0.0002574288
22	4188	0.038	0.0009348851
22	4189	0.038	0.00056049
22	4190	0.038	0.0001860949
22	4191	0.038	0.000873221792
22	4192	0.038	0.000486484519
22	4193	0.038	9.9747246e-005
22	4194	0.038	0.000848168525
22	4195	0.038	0.0004728975
22	4196	0.038	9.7626475e-005
22	4197	0.038	0.0007775302
22	4198	0.038	0.000405305502
22	4199	0.038	3.3080804e-005
22	4200	0.038	0.000792821
22	4201	0.038	0.00042074921
22	4202	0.038	4.867742e-005
22	4203	0.038	0.000813473798
22	4204	0.038	0.000434019449
22	4205	0.038	5.45651e-005
22	4206	0.038	0.000854106272
22	4207	0.038	0.000467169879
22	4208	0.038	8.0233486e-005
22	4209	0.038	0.00078406592
22	4210	0.038	0.00039639994
22	4211	0.038	8.73396e-006
22	4212	0.038	0.000975436193
22	4213	0.038	0.0006014507
22	4214	0.038	0.000227465207
22	4215	0.038	0.000890003088
22	4216	0.038	0.000522577376
22	4217	0.038	0.000155151664
22	4296	0.039	0.0008116998
22	4297	0.039	0.0004373047
22	4298	0.039	6.29096e-005
22	4299	0.039	0.000713009973
22	4300	0.039	0.0003262727
22	4301	0.039	0.00072235545
22	4302	0.039	0.000347084425
22	4303	0.039	0.000660856106
22	4304	0.039	0.000288631408
22	4305	0.039	0.00067660563
22	4306	0.039	0.00030453384
22	4307	0.039	0.000675110751
22	4308	0.039	0.000295656402
22	4309	0.039	0.000693297093
22	4310	0.039	0.0003063607
22	4311	0.039	0.00062106798
22	4312	0.039	0.000233402
22	4313	0.039	0.000853479714
22	4314	0.039	0.000479494221
22	4315	0.039	0.000105508728
22	4316	0.039	0.000787725952
22	4317	0.039	0.00042030024
22	4318	0.039	5.2874528e-005
22	4404	0.04	0.0006885145
22	4405	0.04	0.0003141194
22	4406	0.04	0.000939535427
22	4407	0.04	0.000552798154
22	4408	0.04	0.000166060881
22	4409	0.04	0.0009718134
22	4410	0.04	0.000596542375
22	4411	0.04	0.00022127135
22	4412	0.04	0.00091640671
22	4413	0.04	0.000544182012
22	4414	0.04	0.000171957314
22	4415	0.04	0.00093246205
22	4416	0.04	0.00056039026
22	4417	0.04	0.00018831847
22	4418	0.04	0.000916202053
22	4419	0.04	0.000536747704
22	4420	0.04	0.000157293355
22	4421	0.04	0.000919424307
22	4422	0.04	0.000532487914
22	4423	0.04	0.000145551521
22	4424	0.04	0.00084573602
22	4425	0.04	0.00045807004
22	4426	0.04	7.040406e-005
22	4427	0.04	0.000731523235
22	4428	0.04	0.000357537742
22	4429	0.04	0.000685448816
22	4430	0.04	0.000318023104
22	4519	0.041	0.0009397243
22	4520	0.041	0.0005653292
22	4521	0.041	0.0001909341
22	4522	0.041	0.000779323608
22	4523	0.041	0.000392586335
22	4524	0.041	5.849062e-006
22	4525	0.041	0.000846000325
22	4526	0.041	0.0004707293
22	4527	0.041	9.5458275e-005
22	4528	0.041	0.000799732616
22	4529	0.041	0.000427507918
22	4530	0.041	5.528322e-005
22	4531	0.041	0.00081624668
22	4532	0.041	0.00044417489
22	4533	0.041	7.21031e-005
22	4534	0.041	0.000777839006
22	4535	0.041	0.000398384657
22	4536	0.041	1.8930308e-005
22	4537	0.041	0.000758615128
22	4538	0.041	0.000371678735
22	4539	0.041	0.00068273808
22	4540	0.041	0.0002950721
22	4541	0.041	0.000983552249
22	4542	0.041	0.000609566756
22	4543	0.041	0.000235581263
22	4544	0.041	0.000950597392
22	4545	0.041	0.00058317168
22	4546	0.041	0.000215745968
22	4629	0.042	0.000816539
22	4630	0.042	0.0004421439
22	4631	0.042	6.77488e-005
22	4632	0.042	0.000619111789
22	4633	0.042	0.000232374516
22	4634	0.042	0.00072018725
22	4635	0.042	0.000344916225
22	4636	0.042	0.000683058522
22	4637	0.042	0.000310833824
22	4638	0.042	0.00070003131
22	4639	0.042	0.00032795952
22	4640	0.042	0.000639475959
22	4641	0.042	0.00026002161
22	4642	0.042	0.000984742342
22	4643	0.042	0.000597805949
22	4644	0.042	0.000210869556
22	4645	0.042	0.00090740612
22	4646	0.042	0.00051974014
22	4647	0.042	0.00013207416
22	4648	0.042	0.00086159577
22	4649	0.042	0.000487610277
22	4650	0.042	0.000113624784
22	4651	0.042	0.000848320256
22	4652	0.042	0.000480894544
22	4653	0.042	0.000113468832
22	4740	0.043	0.0006933537
22	4741	0.043	0.0003189586
22	4742	0.043	0.000845637243
22	4743	0.043	0.00045889997
22	4744	0.043	7.2162697e-005
22	4745	0.043	0.0009696452
22	4746	0.043	0.000594374175
22	4747	0.043	0.00021910315
22	4748	0.043	0.000938609126
22	4749	0.043	0.000566384428
22	4750	0.043	0.00019415973
22	4751	0.043	0.00095588773
22	4752	0.043	0.00058381594
22	4753	0.043	0.00021174415
22	4754	0.043	0.000880567261
22	4755	0.043	0.000501112912
22	4756	0.043	0.000121658563
22	4757	0.043	0.000823933163
22	4758	0.043	0.00043699677
22	4759	0.043	5.0060377e-005
22	4760	0.043	0.00074440818
22	4761	0.043	0.0003567422
22	4762	0.043	0.000739639291
22	4763	0.043	0.000365653798
22	4764	0.043	0.00074604312
22	4765	0.043	0.000378617408
22	4766	0.043	1.1191696e-005
22	4850	0.044	0.0009445635
22	4851	0.044	0.0005701684
22	4852	0.044	0.0001957733
22	4853	0.044	0.000685425424
22	4854	0.044	0.000298688151
22	4855	0.044	0.000843832125
22	4856	0.044	0.0004685611
22	4857	0.044	9.3290075e-005
22	4858	0.044	0.000821935032
22	4859	0.044	0.000449710334
22	4860	0.044	7.7485636e-005
22	4861	0.044	0.00083967236
22	4862	0.044	0.00046760057
22	4863	0.044	9.552878e-005
22	4864	0.044	0.000742204214
22	4865	0.044	0.000362749865
22	4866	0.044	0.000663123984
22	4867	0.044	0.000276187591
22	4868	0.044	0.00096907622
22	4869	0.044	0.00058141024
22	4870	0.044	0.00019374426
22	4871	0.044	0.000991668305
22	4872	0.044	0.000617682812
22	4873	0.044	0.000243697319
22	4874	0.044	0.000643765984
22	4875	0.044	0.000276340272
22	4962	0.045	0.0008213782
22	4963	0.045	0.0004469831
22	4964	0.045	7.2588e-005
22	4965	0.045	0.000911950878
22	4966	0.045	0.000525213605
22	4967	0.045	0.000138476332
22	4968	0.045	0.00071801905
22	4969	0.045	0.000342748025
22	4970	0.045	0.000705260938
22	4971	0.045	0.00033303624
22	4972	0.045	0.00072345699
22	4973	0.045	0.0003513852
22	4974	0.045	0.000983295516
22	4975	0.045	0.000603841167
22	4976	0.045	0.000224386818
22	4977	0.045	0.000889251198
22	4978	0.045	0.000502314805
22	4979	0.045	0.000115378412
22	4980	0.045	0.00080607828
22	4981	0.045	0.0004184123
22	4982	0.045	3.074632e-005
22	4983	0.045	0.000869711826
22	4984	0.045	0.000495726333
22	4985	0.045	0.00012174084
22	4986	0.045	0.00090891456
22	4987	0.045	0.000541488848
22	4988	0.045	0.000174063136
22	5071	0.046	0.0006981929
22	5072	0.046	0.0003237978
22	5073	0.046	0.000751739059
22	5074	0.046	0.000365001786
22	5075	0.046	0.000967477
22	5076	0.046	0.000592205975
22	5077	0.046	0.00021693495
22	5078	0.046	0.000960811542
22	5079	0.046	0.000588586844
22	5080	0.046	0.000216362146
22	5081	0.046	0.00097931341
22	5082	0.046	0.00060724162
22	5083	0.046	0.00023516983
22	5084	0.046	0.000844932469
22	5085	0.046	0.00046547812
22	5086	0.046	8.6023771e-005
22	5087	0.046	0.000728442019
22	5088	0.046	0.000341505626
22	5089	0.046	0.00064308034
22	5090	0.046	0.00025541436
22	5091	0.046	0.000747755347
22	5092	0.046	0.000373769854
22	5093	0.046	0.000806637424
22	5094	0.046	0.000439211712
22	5095	0.046	7.1786e-005
22	5183	0.047	0.0009494027
22	5184	0.047	0.0005750076
22	5185	0.047	0.0002006125
22	5186	0.047	0.000978264513
22	5187	0.047	0.00059152724
22	5188	0.047	0.000204789967
22	5189	0.047	0.000841663925
22	5190	0.047	0.0004663929
22	5191	0.047	9.1121875e-005
22	5192	0.047	0.000844137448
22	5193	0.047	0.00047191275
22	5194	0.047	9.9688052e-005
22	5195	0.047	0.00086309804
22	5196	0.047	0.00049102625
22	5197	0.047	0.00011895446
22	5198	0.047	0.000706569422
22	5199	0.047	0.000327115073
22	5200	0.047	0.000954569233
22	5201	0.047	0.00056763284
22	5202	0.047	0.000180696447
22	5203	0.047	0.00086774838
22	5204	0.047	0.0004800824
22	5205	0.047	9.241642e-005
22	5206	0.047	0.000999784361
22	5207	0.047	0.000625798868
22	5208	0.047	0.000251813375
22	5209	0.047	0.000704360288
22	5210	0.047	0.000336934576
22	5297	0.048	0.0008262174
22	5298	0.048	0.0004518223
22	5299	0.048	7.74272e-005
22	5300	0.048	0.000818052694
22	5301	0.048	0.000431315421
22	5302	0.048	4.4578148e-005
22	5303	0.048	0.00071585085
22	5304	0.048	0.000340579825
22	5305	0.048	0.000727463354
22	5306	0.048	0.000355238656
22	5307	0.048	0.00074688267
22	5308	0.048	0.00037481088
22	5309	0.048	2.73909e-006
22	5310	0.048	0.000947660724
22	5311	0.048	0.000568206375
22	5312	0.048	0.000188752026
22	5313	0.048	0.000793760054
22	5314	0.048	0.000406823661
22	5315	0.048	1.9887268e-005
22	5316	0.048	0.00070475044
22	5317	0.048	0.00031708446
22	5318	0.048	0.000877827882
22	5319	0.048	0.000503842389
22	5320	0.048	0.000129856896
22	5321	0.048	0.000969508864
22	5322	0.048	0.000602083152
22	5323	0.048	0.00023465744
22	5408	0.049	0.0007030321
22	5409	0.049	0.000328637
22	5410	0.049	0.000657840875
22	5411	0.049	0.000271103602
22	5412	0.049	0.0009653088
22	5413	0.049	0.000590037775
22	5414	0.049	0.00021476675
22	5415	0.049	0.000983013958
22	5416	0.049	0.00061078926
22	5417	0.049	0.000238564562
22	5418	0.049	0.0006306673
22	5419	0.049	0.00025859551
22	5420	0.049	0.000809297677
22	5421	0.049	0.000429843328
22	5422	0.049	5.0388979e-005
22	5423	0.049	0.000632950875
22	5424	0.049	0.000246014482
22	5425	0.049	0.00092941848
22	5426	0.049	0.0005417525
22	5427	0.049	0.00015408652
22	5428	0.049	0.000755871403
22	5429	0.049	0.00038188591
22	5430	0.049	7.900417e-006
22	5431	0.049	0.000867231728
22	5432	0.049	0.000499806016
22	5433	0.049	0.000132380304
22	5520	0.05	0.0009542419
22	5521	0.05	0.0005798468
22	5522	0.05	0.0002054517
22	5523	0.05	0.000884366329
22	5524	0.05	0.000497629056
22	5525	0.05	0.000110891783
22	5526	0.05	0.000839495725
22	5527	0.05	0.0004642247
22	5528	0.05	8.8953675e-005
22	5529	0.05	0.000866339864
22	5530	0.05	0.000494115166
22	5531	0.05	0.000121890468
22	5532	0.05	0.00088652372
22	5533	0.05	0.00051445193
22	5534	0.05	0.00014238014
22	5535	0.05	0.00067093463
22	5536	0.05	0.000291480281
22	5537	0.05	0.000859078089
22	5538	0.05	0.000472141696
22	5539	0.05	8.5205303e-005
22	5540	0.05	0.00076642054
22	5541	0.05	0.00037875456
22	5542	0.05	0.000633914924
22	5543	0.05	0.000259929431
22	5544	0.05	0.000764954592
22	5545	0.05	0.00039752888
22	5546	0.05	3.0103168e-005
22	5630	0.051	0.0008310566
22	5631	0.051	0.0004566615
22	5632	0.051	8.22664e-005
22	5633	0.051	0.00072415451
22	5634	0.051	0.000337417237
22	5635	0.051	0.00071368265
22	5636	0.051	0.000338411625
22	5637	0.051	0.00074966577
22	5638	0.051	0.000377441072
22	5639	0.051	5.216374e-006
22	5640	0.051	0.00077030835
22	5641	0.051	0.00039823656
22	5642	0.051	2.616477e-005
22	5643	0.051	0.000912025932
22	5644	0.051	0.000532571583
22	5645	0.051	0.000153117234
22	5646	0.051	0.00069826891
22	5647	0.051	0.000311332517
22	5648	0.051	0.00099108858
22	5649	0.051	0.0006034226
22	5650	0.051	0.00021575662
22	5651	0.051	0.000885943938
22	5652	0.051	0.000511958445
22	5653	0.051	0.000137972952
22	5654	0.051	0.000662677456
22	5655	0.051	0.000295251744
22	5742	0.052	0.0007078713
22	5743	0.052	0.0003334762
22	5744	0.052	0.000950679964
22	5745	0.052	0.000563942691
22	5746	0.052	0.000177205418
22	5747	0.052	0.0009631406
22	5748	0.052	0.000587869575
22	5749	0.052	0.00021259855
22	5750	0.052	0.000632991676
22	5751	0.052	0.000260766978
22	5752	0.052	0.00065409298
22	5753	0.052	0.00028202119
22	5754	0.052	0.000773662885
22	5755	0.052	0.000394208536
22	5756	0.052	1.4754187e-005
22	5757	0.052	0.000924396124
22	5758	0.052	0.000537459731
22	5759	0.052	0.000150523338
22	5760	0.052	0.00082809064
22	5761	0.052	0.00044042466
22	5762	0.052	5.275868e-005
22	5763	0.052	0.000763987459
22	5764	0.052	0.000390001966
22	5765	0.052	1.6016473e-005
22	5766	0.052	0.000927826032
22	5767	0.052	0.00056040032
22	5768	0.052	0.000192974608
22	5853	0.053	0.0009590811
22	5854	0.053	0.000584686
22	5855	0.053	0.0002102909
22	5856	0.053	0.000790468145
22	5857	0.053	0.000403730872
22	5858	0.053	1.6993599e-005
22	5859	0.053	0.000837327525
22	5860	0.053	0.0004620565
22	5861	0.053	8.6785475e-005
22	5862	0.053	0.00088854228
22	5863	0.053	0.000516317582
22	5864	0.053	0.000144092884
22	5865	0.053	0.0009099494
22	5866	0.053	0.00053787761
22	5867	0.053	0.00016580582
22	5868	0.053	0.000635299838
22	5869	0.053	0.000255845489
22	5870	0.053	0.000763586945
22	5871	0.053	0.000376650552
22	5872	0.053	0.0006650927
22	5873	0.053	0.00027742672
22	5874	0.053	0.00064203098
22	5875	0.053	0.000268045487
22	5876	0.053	0.000825548896
22	5877	0.053	0.000458123184
22	5878	0.053	9.0697472e-005
22	5964	0.054	0.0008358958
22	5965	0.054	0.0004615007
22	5966	0.054	8.71056e-005
22	5967	0.054	0.000630256326
22	5968	0.054	0.000243519053
22	5969	0.054	0.00071151445
22	5970	0.054	0.000336243425
22	5971	0.054	0.000771868186
22	5972	0.054	0.000399643488
22	5973	0.054	2.741879e-005
22	5974	0.054	0.00079373403
22	5975	0.054	0.00042166224
22	5976	0.054	4.959045e-005
22	5977	0.054	0.00087639114
22	5978	0.054	0.000496936791
22	5979	0.054	0.000117482442
22	5980	0.054	0.000989714159
22	5981	0.054	0.000602777766
22	5982	0.054	0.000215841373
22	5983	0.054	0.00088976074
22	5984	0.054	0.00050209476
22	5985	0.054	0.00011442878
22	5986	0.054	0.000894059994
22	5987	0.054	0.000520074501
22	5988	0.054	0.000146089008
22	5989	0.054	0.00072327176
22	5990	0.054	0.000355846048
22	6073	0.055	0.0007127105
22	6074	0.055	0.0003383154
22	6075	0.055	0.00085678178
22	6076	0.055	0.000470044507
22	6077	0.055	8.3307234e-005
22	6078	0.055	0.0009609724
22	6079	0.055	0.000585701375
22	6080	0.055	0.00021043035
22	6081	0.055	0.000655194092
22	6082	0.055	0.000282969394
22	6083	0.055	0.00067751866
22	6084	0.055	0.00030544687
22	6085	0.055	0.000738028093
22	6086	0.055	0.000358573744
22	6087	0.055	0.00082890498
22	6088	0.055	0.000441968587
22	6089	0.055	5.5032194e-005
22	6090	0.055	0.0007267628
22	6091	0.055	0.00033909682
22	6092	0.055	0.000772103515
22	6093	0.055	0.000398118022
22	6094	0.055	2.4132529e-005
22	6095	0.055	0.000988420336
22	6096	0.055	0.000620994624
22	6097	0.055	0.000253568912
22	6184	0.056	0.0009639203
22	6185	0.056	0.0005895252
22	6186	0.056	0.0002151301
22	6187	0.056	0.000696569961
22	6188	0.056	0.000309832688
22	6189	0.056	0.000835159325
22	6190	0.056	0.0004598883
22	6191	0.056	8.4617275e-005
22	6192	0.056	0.000910744696
22	6193	0.056	0.000538519998
22	6194	0.056	0.0001662953
22	6195	0.056	0.00093337508
22	6196	0.056	0.00056130329
22	6197	0.056	0.0001892315
22	6198	0.056	0.000979119395
22	6199	0.056	0.000599665046
22	6200	0.056	0.000220210697
22	6201	0.056	0.000668095801
22	6202	0.056	0.000281159408
22	6203	0.056	0.00095143084
22	6204	0.056	0.00056376486
22	6205	0.056	0.00017609888
22	6206	0.056	0.000650147036
22	6207	0.056	0.000276161543
22	6208	0.056	0.0008861432
22	6209	0.056	0.000518717488
22	6210	0.056	0.000151291776
22	6301	0.057	0.000840735
22	6302	0.057	0.0004663399
22	6303	0.057	9.19448e-005
22	6304	0.057	0.000923095415
22	6305	0.057	0.000536358142
22	6306	0.057	0.000149620869
22	6307	0.057	0.00070934625
22	6308	0.057	0.000334075225
22	6309	0.057	0.000794070602
22	6310	0.057	0.000421845904
22	6311	0.057	4.9621206e-005
22	6312	0.057	0.00081715971
22	6313	0.057	0.00044508792
22	6314	0.057	7.301613e-005
22	6315	0.057	0.000840756348
22	6316	0.057	0.000461301999
22	6317	0.057	8.184765e-005
22	6318	0.057	0.000894223015
22	6319	0.057	0.000507286622
22	6320	0.057	0.000120350229
22	6321	0.057	0.0007884329
22	6322	0.057	0.00040076692
22	6323	0.057	1.310094e-005
22	6324	0.057	0.00090217605
22	6325	0.057	0.000528190557
22	6326	0.057	0.000154205064
22	6327	0.057	0.000783866064
22	6328	0.057	0.000416440352
22	6329	0.057	4.901464e-005
22	6405	0.058	0.0007175497
22	6406	0.058	0.0003431546
22	6407	0.058	0.000762883596
22	6408	0.058	0.000376146323
22	6409	0.058	0.0009588042
22	6410	0.058	0.000583533175
22	6411	0.058	0.00020826215
22	6412	0.058	0.000677396508
22	6413	0.058	0.00030517181
22	6414	0.058	0.00070094434
22	6415	0.058	0.00032887255
22	6416	0.058	0.000702393301
22	6417	0.058	0.000322938952
22	6418	0.058	0.000733413836
22	6419	0.058	0.000346477443
22	6420	0.058	0.00062543496
22	6421	0.058	0.00023776898
22	6422	0.058	0.000780219571
22	6423	0.058	0.000406234078
22	6424	0.058	3.2248585e-005
22	6425	0.058	0.000681588928
22	6426	0.058	0.000314163216
22	6517	0.059	0.0009687595
22	6518	0.059	0.0005943644
22	6519	0.059	0.0002199693
22	6520	0.059	0.00098940905
22	6521	0.059	0.000602671777
22	6522	0.059	0.000215934504
22	6523	0.059	0.000832991125
22	6524	0.059	0.0004577201
22	6525	0.059	8.2449075e-005
22	6526	0.059	0.000932947112
22	6527	0.059	0.000560722414
22	6528	0.059	0.000188497716
22	6529	0.059	0.00095680076
22	6530	0.059	0.00058472897
22	6531	0.059	0.00021265718
22	6532	0.059	0.000943484603
22	6533	0.059	0.000564030254
22	6534	0.059	0.000184575905
22	6535	0.059	0.00095954105
22	6536	0.059	0.000572604657
22	6537	0.059	0.000185668264
22	6538	0.059	0.000850103
22	6539	0.059	0.00046243702
22	6540	0.059	7.477104e-005
22	6541	0.059	0.000658263092
22	6542	0.059	0.000284277599
22	6543	0.059	0.000946737504
22	6544	0.059	0.000579311792
22	6545	0.059	0.00021188608
22	6634	0.06	0.0008455742
22	6635	0.06	0.0004711791
22	6636	0.06	9.6784e-005
22	6637	0.06	0.000829197231
22	6638	0.06	0.000442459958
22	6639	0.06	5.5722685e-005
22	6640	0.06	0.00070717805
22	6641	0.06	0.000331907025
22	6642	0.06	0.000816273018
22	6643	0.06	0.00044404832
22	6644	0.06	7.1823622e-005
22	6645	0.06	0.00084058539
22	6646	0.06	0.0004685136
22	6647	0.06	9.644181e-005
22	6648	0.06	0.000805121556
22	6649	0.06	0.000425667207
22	6650	0.06	4.6212858e-005
22	6651	0.06	0.000798731871
22	6652	0.06	0.000411795478
22	6653	0.06	2.4859085e-005
22	6654	0.06	0.00068710506
22	6655	0.06	0.00029943908
22	6656	0.06	0.000910292106
22	6657	0.06	0.000536306613
22	6658	0.06	0.00016232112
22	6659	0.06	0.000844460368
22	6660	0.06	0.000477034656
22	6661	0.06	0.000109608944
22	6742	0.061	0.0007223889
22	6743	0.061	0.0003479938
22	6744	0.061	0.000668985412
22	6745	0.061	0.000282248139
22	6746	0.061	0.000956636
22	6747	0.061	0.000581364975
22	6748	0.061	0.00020609395
22	6749	0.061	0.000699598924
22	6750	0.061	0.000327374226
22	6751	0.061	0.00072437002
22	6752	0.061	0.00035229823
22	6753	0.061	0.000666758509
22	6754	0.061	0.00028730416
22	6755	0.061	0.000637922692
22	6756	0.061	0.000250986299
22	6757	0.061	0.0009117731
22	6758	0.061	0.00052410712
22	6759	0.061	0.00013644114
22	6760	0.061	0.000788335627
22	6761	0.061	0.000414350134
22	6762	0.061	4.0364641e-005
22	6763	0.061	0.000742183232
22	6764	0.061	0.00037475752
22	6765	0.061	7.331808e-006
22	6851	0.062	0.0009735987
22	6852	0.062	0.0005992036
22	6853	0.062	0.0002248085
22	6854	0.062	0.000895510866
22	6855	0.062	0.000508773593
22	6856	0.062	0.00012203632
22	6857	0.062	0.000830822925
22	6858	0.062	0.0004555519
22	6859	0.062	8.0280875e-005
22	6860	0.062	0.000955149528
22	6861	0.062	0.00058292483
22	6862	0.062	0.000210700132
22	6863	0.062	0.00098022644
22	6864	0.062	0.00060815465
[...]
22	7084	0.064	0.00020392575
22	7085	0.064	0.00072180134
22	7086	0.064	0.000349576642
22	7087	0.064	0.0007477957
22	7088	0.064	0.00037572391
22	7089	0.064	3.65212e-006
22	7090	0.064	0.000631123717
22	7091	0.064	0.000251669368
22	7092	0.064	0.000929367941
22	7093	0.064	0.000542431548
22	7094	0.064	0.000155495155
22	7095	0.064	0.00081044526
22	7096	0.064	0.00042277928
22	7097	0.064	3.51133e-005
22	7098	0.064	0.000796451683
22	7099	0.064	0.00042246619
22	7100	0.064	4.8480697e-005
22	7101	0.064	0.000802777536
22	7102	0.064	0.000435351824
22	7103	0.064	6.7926112e-005
22	7185	0.065	0.0009784379
22	7186	0.065	0.0006040428
22	7187	0.065	0.0002296477
22	7188	0.065	0.000801612682
22	7189	0.065	0.000414875409
22	7190	0.065	2.8138136e-005
22	7191	0.065	0.000828654725
22	7192	0.065	0.0004533837
22	7193	0.065	7.8112675e-005
22	7194	0.065	0.000977351944
22	7195	0.065	0.000605127246
22	7196	0.065	0.000232902548
22	7197	0.065	0.00063158033
22	7198	0.065	0.00025950854
22	7199	0.065	0.000872215019
22	7200	0.065	0.00049276067
22	7201	0.065	0.000113306321
22	7202	0.065	0.000768558762
22	7203	0.065	0.000381622369
22	7204	0.065	0.00064744732
22	7205	0.065	0.00025978134
22	7206	0.065	0.000674495204
22	7207	0.065	0.000300509711
22	7208	0.065	0.0007005004
22	7209	0.065	0.000333074688
22	7296	0.066	0.0008552526
22	7297	0.066	0.0004808575
22	7298	0.066	0.0001064624
22	7299	0.066	0.000641400863
22	7300	0.066	0.00025466359
22	7301	0.066	0.00070284165
22	7302	0.066	0.000327570625
22	7303	0.066	0.00086067785
22	7304	0.066	0.000488453152
22	7305	0.066	0.000116228454
22	7306	0.066	0.00088743675
22	7307	0.066	0.00051536496
22	7308	0.066	0.00014329317
22	7309	0.066	0.000733851972
22	7310	0.066	0.000354397623
22	7311	0.066	0.000994685976
22	7312	0.066	0.000607749583
22	7313	0.066	0.00022081319
22	7314	0.066	0.00087211536
22	7315	0.066	0.00048444938
22	7316	0.066	9.67834e-005
22	7317	0.066	0.000926524218
22	7318	0.066	0.000552538725
22	7319	0.066	0.000178553232
22	7320	0.066	0.000965648976
22	7321	0.066	0.000598223264
22	7322	0.066	0.000230797552
22	7409	0.067	0.0007320673
22	7410	0.067	0.0003576722
22	7411	0.067	0.000867926317
22	7412	0.067	0.000481189044
22	7413	0.067	9.4451771e-005
22	7414	0.067	0.0009522996
22	7415	0.067	0.000577028575
22	7416	0.067	0.00020175755
22	7417	0.067	0.000744003756
22	7418	0.067	0.000371779058
22	7419	0.067	0.00077122138
22	7420	0.067	0.00039914959
22	7421	0.067	2.70778e-005
22	7422	0.067	0.000974943274
22	7423	0.067	0.000595488925
22	7424	0.067	0.000216034576
22	7425	0.067	0.000833876797
22	7426	0.067	0.000446940404
22	7427	0.067	6.0004011e-005
22	7428	0.067	0.00070911742
22	7429	0.067	0.00032145144
22	7430	0.067	0.000804567739
22	7431	0.067	0.000430582246
22	7432	0.067	5.6596753e-005
22	7433	0.067	0.00086337184
22	7434	0.067	0.000495946128
22	7435	0.067	0.000128520416
22	7520	0.068	0.0009832771
22	7521	0.068	0.000608882
22	7522	0.068	0.0002344869
22	7523	0.068	0.000707714498
22	7524	0.068	0.000320977225
22	7525	0.068	0.000826486525
22	7526	0.068	0.0004512155
22	7527	0.068	7.5944475e-005
22	7528	0.068	0.00099955436
22	7529	0.068	0.000627329662
22	7530	0.068	0.000255104964
22	7531	0.068	0.00065500601
22	7532	0.068	0.00028293422
22	7533	0.068	0.000836580227
22	7534	0.068	0.000457125878
22	7535	0.068	7.7671529e-005
22	7536	0.068	0.000673067618
22	7537	0.068	0.000286131225
22	7538	0.068	0.00093378546
22	7539	0.068	0.00054611948
22	7540	0.068	0.0001584535
22	7541	0.068	0.00068261126
22	7542	0.068	0.000308625767
22	7543	0.068	0.000761094704
22	7544	0.068	0.000393668992
22	7545	0.068	2.624328e-005
22	7629	0.069	0.0008600918
22	7630	0.069	0.0004856967
22	7631	0.069	0.0001113016
22	7632	0.069	0.000934239952
22	7633	0.069	0.000547502679
22	7634	0.069	0.000160765406
22	7635	0.069	0.00070067345
22	7636	0.069	0.000325402425
22	7637	0.069	0.000882880266
22	7638	0.069	0.000510655568
22	7639	0.069	0.00013843087
22	7640	0.069	0.00091086243
22	7641	0.069	0.00053879064
22	7642	0.069	0.00016671885
22	7643	0.069	0.00069821718
22	7644	0.069	0.000318762831
22	7645	0.069	0.000899194832
22	7646	0.069	0.000512258439
22	7647	0.069	0.000125322046
22	7648	0.069	0.00077078752
22	7649	0.069	0.00038312154
22	7650	0.069	0.000934640274
22	7651	0.069	0.000560654781
22	7652	0.069	0.000186669288
22	7653	0.069	0.000658817568
22	7654	0.069	0.000291391856
22	7743	0.07	0.0007369065
22	7744	0.07	0.0003625114
22	7745	0.07	0.000774028133
22	7746	0.07	0.00038729086
22	7747	0.07	5.53587e-007
22	7748	0.07	0.0009501314
22	7749	0.07	0.000574860375
22	7750	0.07	0.00019958935
22	7751	0.07	0.000766206172
22	7752	0.07	0.000393981474
22	7753	0.07	2.1756776e-005
22	7754	0.07	0.00079464706
22	7755	0.07	0.00042257527
22	7756	0.07	5.050348e-005
22	7757	0.07	0.000939308482
22	7758	0.07	0.000559854133
22	7759	0.07	0.000180399784
22	7760	0.07	0.000738385653
22	7761	0.07	0.00035144926
22	7762	0.07	0.00099545556
22	7763	0.07	0.00060778958
22	7764	0.07	0.0002201236
22	7765	0.07	0.000812683795
22	7766	0.07	0.000438698302
22	7767	0.07	6.4712809e-005
22	7768	0.07	0.000923966144
22	7769	0.07	0.000556540432
22	7770	0.07	0.00018911472
22	7855	0.071	0.0009881163
22	7856	0.071	0.0006137212
22	7857	0.071	0.0002393261
22	7858	0.071	0.000613816314
22	7859	0.071	0.000227079041
22	7860	0.071	0.000824318325
22	7861	0.071	0.0004490473
22	7862	0.071	7.3776275e-005
22	7863	0.071	0.000649532078
22	7864	0.071	0.00027730738
22	7865	0.071	0.00067843169
22	7866	0.071	0.0003063599
22	7867	0.071	0.000800945435
22	7868	0.071	0.000421491086
22	7869	0.071	4.2036737e-005
22	7870	0.071	0.000964512867
22	7871	0.071	0.000577576474
22	7872	0.071	0.000190640081
22	7873	0.071	0.00083245762
22	7874	0.071	0.00044479164
22	7875	0.071	5.712566e-005
22	7876	0.071	0.000690727316
22	7877	0.071	0.000316741823
22	7878	0.071	0.000821689008
22	7879	0.071	0.000454263296
22	7880	0.071	8.6837584e-005
22	7964	0.072	0.000864931
22	7965	0.072	0.0004905359
22	7966	0.072	0.0001161408
22	7967	0.072	0.000840341768
22	7968	0.072	0.000453604495
22	7969	0.072	6.6867222e-005
22	7970	0.072	0.00069850525
22	7971	0.072	0.000323234225
22	7972	0.072	0.000905082682
22	7973	0.072	0.000532857984
22	7974	0.072	0.000160633286
22	7975	0.072	0.00093428811
22	7976	0.072	0.00056221632
22	7977	0.072	0.00019014453
22	7978	0.072	0.000662582388
22	7979	0.072	0.000283128039
22	7980	0.072	0.000803703688
22	7981	0.072	0.000416767295
22	7982	0.072	2.9830902e-005
22	7983	0.072	0.00066945968
22	7984	0.072	0.0002817937
22	7985	0.072	0.00094275633
22	7986	0.072	0.000568770837
22	7987	0.072	0.000194785344
22	7988	0.072	0.000719411872
22	7989	0.072	0.00035198616
22	8076	0.073	0.0007417457
22	8077	0.073	0.0003673506
22	8078	0.073	0.000680129949
22	8079	0.073	0.000293392676
22	8080	0.073	0.0009479632
22	8081	0.073	0.000572692175
22	8082	0.073	0.00019742115
22	8083	0.073	0.000788408588
22	8084	0.073	0.00041618389
22	8085	0.073	4.3959192e-005
22	8086	0.073	0.00081807274
22	8087	0.073	0.00044600095
22	8088	0.073	7.392916e-005
22	8089	0.073	0.00090367369
22	8090	0.073	0.000524219341
22	8091	0.073	0.000144764992
22	8092	0.073	0.000642894509
22	8093	0.073	0.000255958116
22	8094	0.073	0.00089412772
22	8095	0.073	0.00050646174
22	8096	0.073	0.00011879576
22	8097	0.073	0.000820799851
22	8098	0.073	0.000446814358
22	8099	0.073	7.2828865e-005
22	8100	0.073	0.000984560448
22	8101	0.073	0.000617134736
22	8102	0.073	0.000249709024
22	8187	0.074	0.0009929555
22	8188	0.074	0.0006185604
22	8189	0.074	0.0002441653
22	8190	0.074	0.000906655403
22	8191	0.074	0.00051991813
22	8192	0.074	0.000133180857
22	8193	0.074	0.000822150125
22	8194	0.074	0.0004468791
22	8195	0.074	7.1608075e-005
22	8196	0.074	0.000671734494
22	8197	0.074	0.000299509796
22	8198	0.074	0.00070185737
22	8199	0.074	0.00032978558
22	8200	0.074	0.000765310643
22	8201	0.074	0.000385856294
22	8202	0.074	6.401945e-006
22	8203	0.074	0.000869021723
22	8204	0.074	0.00048208533
22	8205	0.074	9.5148937e-005
22	8206	0.074	0.00073112978
22	8207	0.074	0.0003434638
22	8208	0.074	0.000698843372
22	8209	0.074	0.000324857879
22	8210	0.074	0.000882283312
22	8211	0.074	0.0005148576
22	8212	0.074	0.000147431888
22	8297	0.075	0.0008697702
22	8298	0.075	0.0004953751
22	8299	0.075	0.00012098
22	8300	0.075	0.000746443584
22	8301	0.075	0.000359706311
22	8302	0.075	0.00069633705
22	8303	0.075	0.000321066025
22	8304	0.075	0.000927285098
22	8305	0.075	0.0005550604
22	8306	0.075	0.000182835702
22	8307	0.075	0.00095771379
22	8308	0.075	0.000585642
22	8309	0.075	0.00021357021
22	8310	0.075	0.000626947596
22	8311	0.075	0.000247493247
22	8312	0.075	0.000708212544
22	8313	0.075	0.000321276151
22	8314	0.075	0.00095579782
22	8315	0.075	0.00056813184
22	8316	0.075	0.00018046586
22	8317	0.075	0.000950872386
22	8318	0.075	0.000576886893
22	8319	0.075	0.0002029014
22	8320	0.075	0.000780006176
22	8321	0.075	0.000412580464
22	8322	0.075	4.5154752e-005
22	8410	0.076	0.0007465849
22	8411	0.076	0.0003721898
22	8412	0.076	0.000972969038
22	8413	0.076	0.000586231765
22	8414	0.076	0.000199494492
22	8415	0.076	0.000945795
22	8416	0.076	0.000570523975
22	8417	0.076	0.00019525295
22	8418	0.076	0.000810611004
22	8419	0.076	0.000438386306
22	8420	0.076	6.6161608e-005
22	8421	0.076	0.00084149842
22	8422	0.076	0.00046942663
22	8423	0.076	9.735484e-005
22	8424	0.076	0.000868038898
22	8425	0.076	0.000488584549
22	8426	0.076	0.0001091302
22	8427	0.076	0.000934339758
22	8428	0.076	0.000547403365
22	8429	0.076	0.000160466972
22	8430	0.076	0.00079279988
22	8431	0.076	0.0004051339
22	8432	0.076	1.746792e-005
22	8433	0.076	0.000828915907
22	8434	0.076	0.000454930414
22	8435	0.076	8.0944921e-005
22	8436	0.076	0.00067772904
22	8437	0.076	0.000310303328
22	8518	0.077	0.0009977947
22	8519	0.077	0.0006233996
22	8520	0.077	0.0002490045
22	8521	0.077	0.000812757219
22	8522	0.077	0.000426019946
22	8523	0.077	3.9282673e-005
22	8524	0.077	0.000819981925
22	8525	0.077	0.0004447109
22	8526	0.077	6.9439875e-005
22	8527	0.077	0.00069393691
22	8528	0.077	0.000321712212
22	8529	0.077	0.00072528305
22	8530	0.077	0.00035321126
22	8531	0.077	0.000729675851
22	8532	0.077	0.000350221502
22	8533	0.077	0.000773530579
22	8534	0.077	0.000386594186
22	8535	0.077	0.00062980194
22	8536	0.077	0.00024213596
22	8537	0.077	0.000706959428
22	8538	0.077	0.000332973935
22	8539	0.077	0.000942877616
22	8540	0.077	0.000575451904
22	8541	0.077	0.000208026192
22	8630	0.078	0.0008746094
22	8631	0.078	0.0005002143
22	8632	0.078	0.0001258192
22	8633	0.078	0.0006525454
22	8634	0.078	0.000265808127
22	8635	0.078	0.00069416885
22	8636	0.078	0.000318897825
22	8637	0.078	0.000949487514
22	8638	0.078	0.000577262816
22	8639	0.078	0.000205038118
22	8640	0.078	0.00098113947
22	8641	0.078	0.00060906768
22	8642	0.078	0.00023699589
22	8643	0.078	0.000970767153
22	8644	0.078	0.000591312804
22	8645	0.078	0.000211858455
22	8646	0.078	0.000999657793
22	8647	0.078	0.0006127214
22	8648	0.078	0.000225785007
22	8649	0.078	0.00085446998
22	8650	0.078	0.000466804
22	8651	0.078	7.913802e-005
22	8652	0.078	0.000958988442
22	8653	0.078	0.000585002949
22	8654	0.078	0.000211017456
22	8655	0.078	0.00084060048
22	8656	0.078	0.000473174768
22	8657	0.078	0.000105749056
22	8748	0.079	0.0007514241
22	8749	0.079	0.000377029
22	8750	0.079	2.6339e-006
22	8751	0.079	0.000879070854
22	8752	0.079	0.000492333581
22	8753	0.079	0.000105596308
22	8754	0.079	0.0009436268
22	8755	0.079	0.000568355775
22	8756	0.079	0.00019308475
22	8757	0.079	0.00083281342
22	8758	0.079	0.000460588722
22	8759	0.079	8.8364024e-005
22	8760	0.079	0.0008649241
22	8761	0.079	0.00049285231
22	8762	0.079	0.00012078052
22	8763	0.079	0.000832404106
22	8764	0.079	0.000452949757
22	8765	0.079	7.3495408e-005
22	8766	0.079	0.000838848614
22	8767	0.079	0.000451912221
22	8768	0.079	6.4975828e-005
22	8769	0.079	0.00069147204
22	8770	0.079	0.00030380606
22	8771	0.079	0.000837031963
22	8772	0.079	0.00046304647
22	8773	0.079	8.9060977e-005
22	8774	0.079	0.000738323344
22	8775	0.079	0.000370897632
22	8776	0.079	3.47192e-006
22	8854	0.08	0.0006282388
22	8855	0.08	0.0002538437
22	8856	0.08	0.000718859035
22	8857	0.08	0.000332121762
22	8858	0.08	0.000817813725
22	8859	0.08	0.0004425427
22	8860	0.08	6.7271675e-005
22	8861	0.08	0.000716139326
22	8862	0.08	0.000343914628
22	8863	0.08	0.00074870873
22	8864	0.08	0.00037663694
22	8865	0.08	4.56515e-006
22	8866	0.08	0.000694041059
22	8867	0.08	0.00031458671
22	8868	0.08	0.000678039435
22	8869	0.08	0.000291103042
22	8870	0.08	0.00091614008
22	8871	0.08	0.0005284741
22	8872	0.08	0.00014080812
22	8873	0.08	0.000715075484
22	8874	0.08	0.000341089991
22	8875	0.08	0.000636046208
22	8876	0.08	0.000268620496
22	8963	0.081	0.0008794486
22	8964	0.081	0.0005050535
22	8965	0.081	0.0001306584
22	8966	0.081	0.000945384489
22	8967	0.081	0.000558647216
22	8968	0.081	0.000171909943
22	8969	0.081	0.00069200065
22	8970	0.081	0.000316729625
22	8971	0.081	0.00097168993
22	8972	0.081	0.000599465232
22	8973	0.081	0.000227240534
22	8974	0.081	0.00063249336
22	8975	0.081	0.00026042157
22	8976	0.081	0.000935132361
22	8977	0.081	0.000555678012
22	8978	0.081	0.000176223663
22	8979	0.081	0.000904166649
22	8980	0.081	0.000517230256
22	8981	0.081	0.000130293863
22	8982	0.081	0.00075314214
22	8983	0.081	0.00036547616
22	8984	0.081	0.000967104498
22	8985	0.081	0.000593119005
22	8986	0.081	0.000219133512
22	8987	0.081	0.000901194784
22	8988	0.081	0.000533769072
22	8989	0.081	0.00016634336
22	9080	0.082	0.0007562633
22	9081	0.082	0.0003818682
22	9082	0.082	7.4731e-006
22	9083	0.082	0.00078517267
22	9084	0.082	0.000398435397
22	9085	0.082	1.1698124e-005
22	9086	0.082	0.0009414586
22	9087	0.082	0.000566187575
22	9088	0.082	0.00019091655
22	9089	0.082	0.000855015836
22	9090	0.082	0.000482791138
22	9091	0.082	0.00011056644
22	9092	0.082	0.00088834978
22	9093	0.082	0.00051627799
22	9094	0.082	0.0001442062
22	9095	0.082	0.000796769314
22	9096	0.082	0.000417314965
22	9097	0.082	3.7860616e-005
22	9098	0.082	0.00074335747
22	9099	0.082	0.000356421077
22	9100	0.082	0.00097781018
22	9101	0.082	0.0005901442
22	9102	0.082	0.00020247822
22	9103	0.082	0.000845148019
22	9104	0.082	0.000471162526
22	9105	0.082	9.7177033e-005
22	9106	0.082	0.000798917648
22	9107	0.082	0.000431491936
22	9108	0.082	6.4066224e-005
22	9188	0.083	0.000633078
22	9189	0.083	0.0002586829
22	9190	0.083	0.000624960851
22	9191	0.083	0.000238223578
22	9192	0.083	0.000815645525
22	9193	0.083	0.0004403745
22	9194	0.083	6.5103475e-005
22	9195	0.083	0.000738341742
22	9196	0.083	0.000366117044
22	9197	0.083	0.00077213441
22	9198	0.083	0.00040006262
22	9199	0.083	2.799083e-005
22	9200	0.083	0.000658406267
22	9201	0.083	0.000278951918
22	9202	0.083	0.000969484684
22	9203	0.083	0.000582548291
22	9204	0.083	0.000195611898
22	9205	0.083	0.00081481224
22	9206	0.083	0.00042714626
22	9207	0.083	3.948028e-005
22	9208	0.083	0.00072319154
22	9209	0.083	0.000349206047
22	9210	0.083	0.000696640512
22	9211	0.083	0.0003292148
22	9298	0.084	0.0008842878
22	9299	0.084	0.0005098927
22	9300	0.084	0.0001354976
22	9301	0.084	0.000851486305
22	9302	0.084	0.000464749032
22	9303	0.084	7.8011759e-005
22	9304	0.084	0.00068983245
22	9305	0.084	0.000314561425
22	9306	0.084	0.000993892346
22	9307	0.084	0.000621667648
22	9308	0.084	0.00024944295
22	9309	0.084	0.00065591904
22	9310	0.084	0.00028384725
22	9311	0.084	0.000899497569
22	9312	0.084	0.00052004322
22	9313	0.084	0.000140588871
22	9314	0.084	0.000808675505
22	9315	0.084	0.000421739112
22	9316	0.084	3.4802719e-005
22	9317	0.084	0.0006518143
22	9318	0.084	0.00026414832
22	9319	0.084	0.000975220554
22	9320	0.084	0.000601235061
22	9321	0.084	0.000227249568
22	9322	0.084	0.000961789088
22	9323	0.084	0.000594363376
22	9324	0.084	0.000226937664
22	9413	0.085	0.0007611025
22	9414	0.085	0.0003867074
22	9415	0.085	1.23123e-005
22	9416	0.085	0.000691274486
22	9417	0.085	0.000304537213
22	9418	0.085	0.0009392904
22	9419	0.085	0.000564019375
22	9420	0.085	0.00018874835
22	9421	0.085	0.000877218252
22	9422	0.085	0.000504993554
22	9423	0.085	0.000132768856
22	9424	0.085	0.00091177546
22	9425	0.085	0.00053970367
22	9426	0.085	0.00016763188
22	9427	0.085	0.000761134522
22	9428	0.085	0.000381680173
22	9429	0.085	2.225824e-006
22	9430	0.085	0.000647866326
22	9431	0.085	0.000260929933
22	9432	0.085	0.00087648234
22	9433	0.085	0.00048881636
22	9434	0.085	0.00010115038
22	9435	0.085	0.000853264075
22	9436	0.085	0.000479278582
22	9437	0.085	0.000105293089
22	9438	0.085	0.000859511952
22	9439	0.085	0.00049208624
22	9440	0.085	0.000124660528
22	9525	0.086	0.0006379172
22	9526	0.086	0.0002635221
22	9527	0.086	0.00091779994
22	9528	0.086	0.000531062667
22	9529	0.086	0.000144325394
22	9530	0.086	0.000813477325
22	9531	0.086	0.0004382063
22	9532	0.086	6.2935275e-005
22	9533	0.086	0.000760544158
22	9534	0.086	0.00038831946
22	9535	0.086	1.6094762e-005
22	9536	0.086	0.00079556009
22	9537	0.086	0.0004234883
22	9538	0.086	5.141651e-005
22	9539	0.086	0.000622771475
22	9540	0.086	0.000243317126
22	9541	0.086	0.00087399354
22	9542	0.086	0.000487057147
22	9543	0.086	0.000100120754
22	9544	0.086	0.0007134844
22	9545	0.086	0.00032581842
22	9546	0.086	0.000731307596
22	9547	0.086	0.000357322103
22	9548	0.086	0.000757234816
22	9549	0.086	0.000389809104
22	9550	0.086	2.2383392e-005
22	9630	0.087	0.000889127
22	9631	0.087	0.0005147319
22	9632	0.087	0.0001403368
22	9633	0.087	0.000757588121
22	9634	0.087	0.000370850848
22	9635	0.087	0.00068766425
22	9636	0.087	0.000312393225
22	9637	0.087	0.000643870064
22	9638	0.087	0.000271645366
22	9639	0.087	0.00067934472
22	9640	0.087	0.00030727293
22	9641	0.087	0.000863862777
22	9642	0.087	0.000484408428
22	9643	0.087	0.000104954079
22	9644	0.087	0.000713184361
22	9645	0.087	0.000326247968
22	9646	0.087	0.00093815244
22	9647	0.087	0.00055048646
22	9648	0.087	0.00016282048
22	9649	0.087	0.00098333661
22	9650	0.087	0.000609351117
22	9651	0.087	0.000235365624
22	9652	0.087	0.00065495768
22	9653	0.087	0.000287531968
22	9742	0.088	0.0007659417
22	9743	0.088	0.0003915466
22	9744	0.088	1.71515e-005
22	9745	0.088	0.000984113575
22	9746	0.088	0.000597376302
22	9747	0.088	0.000210639029
22	9748	0.088	0.0009371222
22	9749	0.088	0.000561851175
22	9750	0.088	0.00018658015
22	9751	0.088	0.000899420668
22	9752	0.088	0.00052719597
22	9753	0.088	0.000154971272
22	9754	0.088	0.00093520114
22	9755	0.088	0.00056312935
22	9756	0.088	0.00019105756
22	9757	0.088	0.00072549973
22	9758	0.088	0.000346045381
22	9759	0.088	0.000939311575
22	9760	0.088	0.000552375182
22	9761	0.088	0.000165438789
22	9762	0.088	0.0007751545
22	9763	0.088	0.00038748852
22	9764	0.088	0.000861380131
22	9765	0.088	0.000487394638
22	9766	0.088	0.000113409145
22	9767	0.088	0.000920106256
22	9768	0.088	0.000552680544
22	9769	0.088	0.000185254832
22	9858	0.089	0.0006427564
22	9859	0.089	0.0002683613
22	9860	0.089	0.000823901756
22	9861	0.089	0.000437164483
22	9862	0.089	5.042721e-005
22	9863	0.089	0.000811309125
22	9864	0.089	0.0004360381
22	9865	0.089	6.0767075e-005
22	9866	0.089	0.000782746574
22	9867	0.089	0.000410521876
22	9868	0.089	3.8297178e-005
22	9869	0.089	0.00081898577
22	9870	0.089	0.00044691398
22	9871	0.089	7.484219e-005
22	9872	0.089	0.000966591032
22	9873	0.089	0.000587136683
22	9874	0.089	0.000207682334
22	9875	0.089	0.000778502396
22	9876	0.089	0.000391566003
22	9877	0.089	4.62961e-006
22	9878	0.089	0.00099982254
22	9879	0.089	0.00061215656
22	9880	0.089	0.00022449058
22	9881	0.089	0.000739423652
22	9882	0.089	0.000365438159
22	9883	0.089	0.00081782912
22	9884	0.089	0.000450403408
22	9885	0.089	8.2977696e-005
22	9965	0.09	0.0008939662
22	9966	0.09	0.0005195711
22	9967	0.09	0.000145176
22	9968	0.09	0.000663689937
22	9969	0.09	0.000276952664
22	9970	0.09	0.00068549605
22	9971	0.09	0.000310225025
22	9972	0.09	0.00066607248
22	9973	0.09	0.000293847782
22	9974	0.09	0.0007027704
22	9975	0.09	0.00033069861
22	9976	0.09	0.000828227985
22	9977	0.09	0.000448773636
22	9978	0.09	6.9319287e-005
22	9979	0.09	0.000617693217
22	9980	0.09	0.000230756824
22	9981	0.09	0.0008368246
22	9982	0.09	0.00044915862
22	9983	0.09	6.149264e-005
22	9984	0.09	0.000991452666
22	9985	0.09	0.000617467173
22	9986	0.09	0.00024348168
22	9987	0.09	0.000715551984
22	9988	0.09	0.000348126272

