version 2
run _10UsersSetupPF-0-20201118-22:24:35-15236
attr configname _10UsersSetupPF
attr datetime 20201118-22:24:35
attr experiment _10UsersSetupPF
attr inifile omnetpp.ini
attr iterationvars ""
attr iterationvarsf ""
attr measurement ""
attr network Network
attr processid 15236
attr repetition 0
attr replication #0
attr resultdir results
attr runnumber 0
attr seedset 0
param **.algorithm "\"pf\""
param **.usersCount 10
param **.channelsCount 25
param **.scheduler.generateInterval 5s
param **.user[0].gen.generateInterval 1s
param **.user[1].gen.generateInterval 2s
param **.user[2].gen.generateInterval 1s
param **.user[3].gen.generateInterval 3s
param **.user[4].gen.generateInterval 1s
param **.user[5].gen.generateInterval 4s
param **.user[6].gen.generateInterval 2s
param **.user[7].gen.generateInterval 2s
param **.user[8].gen.generateInterval 6s
param **.user[9].gen.generateInterval 8s
param **.user[0].radioLinkQuality 5
param **.user[1].radioLinkQuality 3
param **.user[2].radioLinkQuality 4
param **.user[3].radioLinkQuality 8
param **.user[4].radioLinkQuality 10
param **.user[5].radioLinkQuality 3
param **.user[6].radioLinkQuality 4
param **.user[7].radioLinkQuality 3
param **.user[8].radioLinkQuality 2
param **.user[9].radioLinkQuality 7
param **.user[0].gen.startingMessage 0
param **.user[1].gen.startingMessage 100
param **.user[2].gen.startingMessage 200
param **.user[3].gen.startingMessage 300
param **.user[4].gen.startingMessage 400
param **.user[5].gen.startingMessage 500
param **.user[6].gen.startingMessage 600
param **.user[7].gen.startingMessage 700
param **.user[8].gen.startingMessage 800
param **.user[9].gen.startingMessage 900

vector 0 Network.user[0].queue "Queue before scheduler's run." ETV
vector 1 Network.user[1].queue "Queue before scheduler's run." ETV
vector 2 Network.user[2].queue "Queue before scheduler's run." ETV
vector 3 Network.user[3].queue "Queue before scheduler's run." ETV
vector 4 Network.user[4].queue "Queue before scheduler's run." ETV
vector 5 Network.user[5].queue "Queue before scheduler's run." ETV
vector 6 Network.user[6].queue "Queue before scheduler's run." ETV
vector 7 Network.user[7].queue "Queue before scheduler's run." ETV
vector 8 Network.user[8].queue "Queue before scheduler's run." ETV
vector 9 Network.user[9].queue "Queue before scheduler's run." ETV
vector 10 Network.scheduler "Scheduler free channels" ETV
vector 11 Network.scheduler "Total users' queues lengths" ETV
vector 12 Network.user[4].queue "Queue after scheduler's run." ETV
vector 13 Network.user[3].queue "Queue after scheduler's run." ETV
vector 14 Network.user[0].queue "Queue after scheduler's run." ETV
vector 15 Network.user[6].queue "Queue after scheduler's run." ETV
vector 16 Network.user[2].queue "Queue after scheduler's run." ETV
vector 17 Network.user[7].queue "Queue after scheduler's run." ETV
vector 18 Network.user[5].queue "Queue after scheduler's run." ETV
vector 19 Network.user[1].queue "Queue after scheduler's run." ETV
vector 20 Network.sink lifetime:vector ETV
attr interpolationmode none
attr title "lifetime of arrived jobs, vector"
attr unit s
vector 21 Network.user[9].queue "Queue after scheduler's run." ETV
vector 22 Network.user[8].queue "Queue after scheduler's run." ETV
0	45	5	4
0	149	10	5
0	257	15	5
0	366	20	5
0	478	25	5
0	584	30	5
0	689	35	5
0	799	40	5
0	906	45	5
0	1013	50	5
0	1120	55	5
0	1228	60	5
0	1335	65	5
0	1442	70	5
0	1550	75	5
0	1660	80	5
0	1769	85	5
0	1875	90	5
0	1980	95	5
0	2088	100	5
0	2198	105	5
0	2304	110	5
0	2413	115	5
0	2521	120	5
0	2627	125	5
0	2735	130	5
0	2842	135	5
0	2950	140	5
0	3061	145	5
0	3166	150	5
0	3272	155	5
0	3381	160	5
0	3489	165	5
0	3596	170	5
0	3704	175	5
0	3812	180	5
0	3920	185	5
0	4026	190	5
0	4134	195	5
0	4243	200	5
0	4352	205	5
0	4459	210	5
0	4564	215	5
0	4673	220	5
0	4783	225	5
0	4889	230	5
0	4998	235	5
0	5106	240	5
0	5212	245	5
0	5320	250	5
0	5427	255	5
0	5535	260	5
0	5646	265	5
0	5751	270	5
0	5857	275	5
0	5966	280	5
0	6074	285	5
0	6181	290	5
0	6289	295	5
0	6397	300	5
0	6505	305	5
0	6611	310	5
0	6719	315	5
0	6828	320	5
0	6937	325	5
0	7044	330	5
0	7149	335	5
0	7258	340	5
0	7368	345	5
0	7474	350	5
0	7583	355	5
0	7691	360	5
0	7797	365	5
0	7905	370	5
0	8012	375	5
0	8120	380	5
0	8231	385	5
0	8336	390	5
0	8442	395	5
0	8551	400	5
0	8659	405	5
0	8766	410	5
0	8874	415	5
0	8982	420	5
0	9090	425	5
0	9196	430	5
0	9304	435	5
0	9413	440	5
0	9522	445	5
0	9629	450	5
0	9734	455	5
0	9843	460	5
0	9953	465	5
0	10059	470	5
0	10168	475	5
0	10276	480	5
0	10382	485	5
0	10490	490	5
0	10597	495	5
0	10705	500	5
0	10816	505	5
0	10921	510	5
0	11027	515	5
0	11136	520	5
0	11244	525	5
0	11351	530	5
0	11459	535	5
0	11567	540	5
0	11675	545	5
0	11781	550	5
0	11889	555	5
0	11998	560	5
0	12107	565	5
0	12214	570	5
0	12319	575	5
0	12428	580	5
0	12538	585	5
0	12644	590	5
0	12753	595	5
0	12861	600	5
0	12967	605	5
0	13075	610	5
0	13182	615	5
0	13290	620	5
0	13401	625	5
0	13506	630	5
0	13612	635	5
0	13721	640	5
0	13829	645	5
0	13936	650	5
0	14044	655	5
0	14152	660	5
0	14260	665	5
0	14366	670	5
0	14474	675	5
0	14583	680	5
0	14692	685	5
0	14799	690	5
0	14904	695	5
0	15013	700	5
0	15123	705	5
0	15229	710	5
0	15338	715	5
0	15446	720	5
0	15552	725	5
0	15660	730	5
0	15767	735	5
0	15875	740	5
0	15986	745	5
0	16091	750	5
0	16197	755	5
0	16306	760	5
0	16414	765	5
0	16521	770	5
0	16629	775	5
0	16737	780	5
0	16845	785	5
0	16951	790	5
0	17059	795	5
0	17168	800	5
0	17277	805	5
0	17384	810	5
0	17489	815	5
0	17598	820	5
0	17708	825	5
0	17814	830	5
0	17923	835	5
0	18031	840	5
0	18137	845	5
0	18245	850	5
0	18352	855	5
0	18460	860	5
0	18571	865	5
0	18676	870	5
0	18782	875	5
0	18891	880	5
0	18999	885	5
0	19106	890	5
0	19214	895	5
0	19322	900	5
0	19430	905	5
0	19536	910	5
0	19644	915	5
0	19753	920	5
0	19862	925	5
0	19969	930	5
0	20074	935	5
0	20183	940	5
0	20293	945	5
0	20399	950	5
0	20508	955	5
0	20616	960	5
0	20722	965	5
0	20830	970	5
0	20937	975	5
0	21045	980	5
0	21156	985	5
0	21261	990	5
0	21367	995	5
0	21476	1000	5
0	21584	1005	5
0	21691	1010	5
0	21799	1015	5
0	21907	1020	5
0	22015	1025	5
0	22121	1030	5
0	22229	1035	5
0	22338	1040	5
0	22447	1045	5
0	22554	1050	5
0	22659	1055	5
0	22768	1060	5
0	22878	1065	5
0	22984	1070	5
0	23093	1075	5
0	23201	1080	5
0	23307	1085	5
0	23415	1090	5
0	23522	1095	5
0	23630	1100	5
0	23741	1105	5
0	23846	1110	5
0	23952	1115	5
0	24061	1120	5
0	24169	1125	5
0	24276	1130	5
0	24384	1135	5
0	24492	1140	5
0	24600	1145	5
0	24706	1150	5
0	24814	1155	5
0	24923	1160	5
0	25032	1165	5
0	25139	1170	5
0	25244	1175	5
0	25353	1180	5
0	25463	1185	5
0	25569	1190	5
0	25678	1195	5
0	25786	1200	5
0	25892	1205	5
0	26000	1210	5
0	26107	1215	5
0	26215	1220	5
0	26326	1225	5
0	26431	1230	5
0	26537	1235	5
0	26646	1240	5
0	26754	1245	5
0	26861	1250	5
0	26969	1255	5
0	27077	1260	5
0	27185	1265	5
0	27291	1270	5
0	27399	1275	5
0	27508	1280	5
0	27617	1285	5
0	27724	1290	5
0	27829	1295	5
0	27938	1300	5
0	28048	1305	5
0	28154	1310	5
0	28263	1315	5
0	28371	1320	5
0	28477	1325	5
0	28585	1330	5
0	28692	1335	5
0	28800	1340	5
0	28911	1345	5
0	29016	1350	5
0	29122	1355	5
0	29231	1360	5
0	29339	1365	5
0	29446	1370	5
0	29554	1375	5
0	29662	1380	5
0	29770	1385	5
0	29876	1390	5
0	29984	1395	5
0	30093	1400	5
0	30202	1405	5
0	30309	1410	5
0	30414	1415	5
0	30523	1420	5
0	30633	1425	5
0	30739	1430	5
0	30848	1435	5
0	30956	1440	5
0	31062	1445	5
0	31170	1450	5
0	31277	1455	5
0	31385	1460	5
0	31496	1465	5
0	31601	1470	5
0	31707	1475	5
0	31816	1480	5
0	31924	1485	5
0	32031	1490	5
0	32139	1495	5
0	32247	1500	5
0	32355	1505	5
0	32461	1510	5
0	32569	1515	5
0	32678	1520	5
0	32787	1525	5
0	32894	1530	5
0	32999	1535	5
0	33108	1540	5
0	33218	1545	5
0	33324	1550	5
0	33433	1555	5
0	33541	1560	5
0	33647	1565	5
0	33755	1570	5
0	33862	1575	5
0	33970	1580	5
0	34081	1585	5
0	34186	1590	5
0	34292	1595	5
0	34401	1600	5
0	34509	1605	5
0	34616	1610	5
0	34724	1615	5
0	34832	1620	5
0	34940	1625	5
0	35046	1630	5
0	35154	1635	5
0	35263	1640	5
0	35372	1645	5
0	35479	1650	5
0	35584	1655	5
0	35693	1660	5
0	35803	1665	5
0	35909	1670	5
0	36018	1675	5
0	36126	1680	5
0	36232	1685	5
0	36340	1690	5
0	36447	1695	5
0	36555	1700	5
0	36666	1705	5
0	36771	1710	5
0	36877	1715	5
0	36986	1720	5
0	37094	1725	5
0	37201	1730	5
0	37309	1735	5
0	37417	1740	5
0	37525	1745	5
0	37631	1750	5
0	37739	1755	5
0	37848	1760	5
0	37957	1765	5
0	38064	1770	5
0	38169	1775	5
0	38278	1780	5
0	38388	1785	5
0	38494	1790	5
0	38603	1795	5
0	38711	1800	5
0	38817	1805	5
0	38925	1810	5
0	39032	1815	5
0	39140	1820	5
0	39251	1825	5
0	39356	1830	5
0	39462	1835	5
0	39571	1840	5
0	39679	1845	5
0	39786	1850	5
0	39894	1855	5
0	40002	1860	5
0	40110	1865	5
0	40216	1870	5
0	40324	1875	5
0	40433	1880	5
0	40542	1885	5
0	40649	1890	5
0	40754	1895	5
0	40863	1900	5
0	40973	1905	5
0	41079	1910	5
0	41188	1915	5
0	41296	1920	5
0	41402	1925	5
0	41510	1930	5
0	41617	1935	5
0	41725	1940	5
0	41836	1945	5
0	41941	1950	5
0	42047	1955	5
0	42156	1960	5
0	42264	1965	5
0	42371	1970	5
0	42479	1975	5
0	42587	1980	5
0	42695	1985	5
0	42801	1990	5
0	42909	1995	5
0	43018	2000	5
0	43127	2005	5
0	43234	2010	5
0	43339	2015	5
0	43448	2020	5
0	43558	2025	5
0	43664	2030	5
0	43773	2035	5
0	43881	2040	5
1	46	5	2
1	150	10	2
1	258	15	3
1	367	20	2
1	479	25	4
1	585	30	6
1	690	35	3
1	800	40	5
1	907	45	3
1	1014	50	5
1	1121	55	3
1	1229	60	5
1	1336	65	3
1	1443	70	5
1	1551	75	3
1	1661	80	4
1	1770	85	7
1	1876	90	3
1	1981	95	6
1	2089	100	2
1	2199	105	5
1	2305	110	2
1	2414	115	5
1	2522	120	2
1	2628	125	5
1	2736	130	2
1	2843	135	5
1	2951	140	2
1	3062	145	5
1	3167	150	2
1	3273	155	5
1	3382	160	2
1	3490	165	5
1	3597	170	2
1	3705	175	5
1	3813	180	2
1	3921	185	5
1	4027	190	2
1	4135	195	5
1	4244	200	2
1	4353	205	5
1	4460	210	2
1	4565	215	5
1	4674	220	2
1	4784	225	5
1	4890	230	2
1	4999	235	5
1	5107	240	2
1	5213	245	5
1	5321	250	2
1	5428	255	5
1	5536	260	2
1	5647	265	5
1	5752	270	2
1	5858	275	5
1	5967	280	2
1	6075	285	5
1	6182	290	2
1	6290	295	5
1	6398	300	2
1	6506	305	5
1	6612	310	2
1	6720	315	5
1	6829	320	2
1	6938	325	5
1	7045	330	2
1	7150	335	5
1	7259	340	2
1	7369	345	5
1	7475	350	2
1	7584	355	5
1	7692	360	2
1	7798	365	5
1	7906	370	2
1	8013	375	5
1	8121	380	2
1	8232	385	5
1	8337	390	2
1	8443	395	5
1	8552	400	2
1	8660	405	5
1	8767	410	2
1	8875	415	5
1	8983	420	2
1	9091	425	5
1	9197	430	2
1	9305	435	5
1	9414	440	2
1	9523	445	5
1	9630	450	2
1	9735	455	5
1	9844	460	2
1	9954	465	5
1	10060	470	2
1	10169	475	5
1	10277	480	2
1	10383	485	5
1	10491	490	2
1	10598	495	5
1	10706	500	2
1	10817	505	5
1	10922	510	2
1	11028	515	5
1	11137	520	2
1	11245	525	5
1	11352	530	2
1	11460	535	5
1	11568	540	2
1	11676	545	5
1	11782	550	2
1	11890	555	5
1	11999	560	2
1	12108	565	5
1	12215	570	2
1	12320	575	5
1	12429	580	2
1	12539	585	5
1	12645	590	2
1	12754	595	5
1	12862	600	2
1	12968	605	5
1	13076	610	2
1	13183	615	5
1	13291	620	2
1	13402	625	5
1	13507	630	2
1	13613	635	5
1	13722	640	2
1	13830	645	5
1	13937	650	2
1	14045	655	5
1	14153	660	2
1	14261	665	5
1	14367	670	2
1	14475	675	5
1	14584	680	2
1	14693	685	5
1	14800	690	2
1	14905	695	5
1	15014	700	2
1	15124	705	5
1	15230	710	2
1	15339	715	5
1	15447	720	2
1	15553	725	5
1	15661	730	2
1	15768	735	5
1	15876	740	2
1	15987	745	5
1	16092	750	2
1	16198	755	5
1	16307	760	2
1	16415	765	5
1	16522	770	2
1	16630	775	5
1	16738	780	2
1	16846	785	5
1	16952	790	2
1	17060	795	5
1	17169	800	2
1	17278	805	5
1	17385	810	2
1	17490	815	5
1	17599	820	2
1	17709	825	5
1	17815	830	2
1	17924	835	5
1	18032	840	2
1	18138	845	5
1	18246	850	2
1	18353	855	5
1	18461	860	2
1	18572	865	5
1	18677	870	2
1	18783	875	5
1	18892	880	2
1	19000	885	5
1	19107	890	2
1	19215	895	5
1	19323	900	2
1	19431	905	5
1	19537	910	2
1	19645	915	5
1	19754	920	2
1	19863	925	5
1	19970	930	2
1	20075	935	5
1	20184	940	2
1	20294	945	5
1	20400	950	2
1	20509	955	5
1	20617	960	2
1	20723	965	5
1	20831	970	2
1	20938	975	5
1	21046	980	2
1	21157	985	5
1	21262	990	2
1	21368	995	5
1	21477	1000	2
1	21585	1005	5
1	21692	1010	2
1	21800	1015	5
1	21908	1020	2
1	22016	1025	5
1	22122	1030	2
1	22230	1035	5
1	22339	1040	2
1	22448	1045	5
1	22555	1050	2
1	22660	1055	5
1	22769	1060	2
1	22879	1065	5
1	22985	1070	2
1	23094	1075	5
1	23202	1080	2
1	23308	1085	5
1	23416	1090	2
1	23523	1095	5
1	23631	1100	2
1	23742	1105	5
1	23847	1110	2
1	23953	1115	5
1	24062	1120	2
1	24170	1125	5
1	24277	1130	2
1	24385	1135	5
1	24493	1140	2
1	24601	1145	5
1	24707	1150	2
1	24815	1155	5
1	24924	1160	2
1	25033	1165	5
1	25140	1170	2
1	25245	1175	5
1	25354	1180	2
1	25464	1185	5
1	25570	1190	2
1	25679	1195	5
1	25787	1200	2
1	25893	1205	5
1	26001	1210	2
1	26108	1215	5
1	26216	1220	2
1	26327	1225	5
1	26432	1230	2
1	26538	1235	5
1	26647	1240	2
1	26755	1245	5
1	26862	1250	2
1	26970	1255	5
1	27078	1260	2
1	27186	1265	5
1	27292	1270	2
1	27400	1275	5
1	27509	1280	2
1	27618	1285	5
1	27725	1290	2
1	27830	1295	5
1	27939	1300	2
1	28049	1305	5
1	28155	1310	2
1	28264	1315	5
1	28372	1320	2
1	28478	1325	5
1	28586	1330	2
1	28693	1335	5
1	28801	1340	2
1	28912	1345	5
1	29017	1350	2
1	29123	1355	5
1	29232	1360	2
1	29340	1365	5
1	29447	1370	2
1	29555	1375	5
1	29663	1380	2
1	29771	1385	5
1	29877	1390	2
1	29985	1395	5
1	30094	1400	2
1	30203	1405	5
1	30310	1410	2
1	30415	1415	5
1	30524	1420	2
1	30634	1425	5
1	30740	1430	2
1	30849	1435	5
1	30957	1440	2
1	31063	1445	5
1	31171	1450	2
1	31278	1455	5
1	31386	1460	2
1	31497	1465	5
1	31602	1470	2
1	31708	1475	5
1	31817	1480	2
1	31925	1485	5
1	32032	1490	2
1	32140	1495	5
1	32248	1500	2
1	32356	1505	5
1	32462	1510	2
1	32570	1515	5
1	32679	1520	2
1	32788	1525	5
1	32895	1530	2
1	33000	1535	5
1	33109	1540	2
1	33219	1545	5
1	33325	1550	2
1	33434	1555	5
1	33542	1560	2
1	33648	1565	5
1	33756	1570	2
1	33863	1575	5
1	33971	1580	2
1	34082	1585	5
1	34187	1590	2
1	34293	1595	5
1	34402	1600	2
1	34510	1605	5
1	34617	1610	2
1	34725	1615	5
1	34833	1620	2
1	34941	1625	5
1	35047	1630	2
1	35155	1635	5
1	35264	1640	2
1	35373	1645	5
1	35480	1650	2
1	35585	1655	5
1	35694	1660	2
1	35804	1665	5
1	35910	1670	2
1	36019	1675	5
1	36127	1680	2
1	36233	1685	5
1	36341	1690	2
1	36448	1695	5
1	36556	1700	2
1	36667	1705	5
1	36772	1710	2
1	36878	1715	5
1	36987	1720	2
1	37095	1725	5
1	37202	1730	2
1	37310	1735	5
1	37418	1740	2
1	37526	1745	5
1	37632	1750	2
1	37740	1755	5
1	37849	1760	2
1	37958	1765	5
1	38065	1770	2
1	38170	1775	5
1	38279	1780	2
1	38389	1785	5
1	38495	1790	2
1	38604	1795	5
1	38712	1800	2
1	38818	1805	5
1	38926	1810	2
1	39033	1815	5
1	39141	1820	2
1	39252	1825	5
1	39357	1830	2
1	39463	1835	5
1	39572	1840	2
1	39680	1845	5
1	39787	1850	2
1	39895	1855	5
1	40003	1860	2
1	40111	1865	5
1	40217	1870	2
1	40325	1875	5
1	40434	1880	2
1	40543	1885	5
1	40650	1890	2
1	40755	1895	5
1	40864	1900	2
1	40974	1905	5
1	41080	1910	2
1	41189	1915	5
1	41297	1920	2
1	41403	1925	5
1	41511	1930	2
1	41618	1935	5
1	41726	1940	2
1	41837	1945	5
1	41942	1950	2
1	42048	1955	5
1	42157	1960	2
1	42265	1965	5
1	42372	1970	2
1	42480	1975	5
1	42588	1980	2
1	42696	1985	5
1	42802	1990	2
1	42910	1995	5
1	43019	2000	2
1	43128	2005	5
1	43235	2010	2
1	43340	2015	5
1	43449	2020	2
1	43559	2025	5
1	43665	2030	2
1	43774	2035	5
1	43882	2040	2
2	47	5	4
2	151	10	5
2	259	15	6
2	368	20	7
2	480	25	8
2	586	30	9
2	691	35	10
2	801	40	13
2	908	45	14
2	1015	50	16
2	1122	55	18
2	1230	60	20
2	1337	65	21
2	1444	70	25
2	1552	75	26
2	1662	80	27
2	1771	85	28
2	1877	90	29
2	1982	95	33
2	2090	100	34
2	2200	105	37
2	2306	110	38
2	2415	115	39
2	2523	120	40
2	2629	125	44
2	2737	130	45
2	2844	135	46
2	2952	140	47
2	3063	145	48
2	3168	150	49
2	3274	155	53
2	3383	160	54
2	3491	165	58
2	3598	170	59
2	3706	175	60
2	3814	180	61
2	3922	185	62
2	4028	190	63
2	4136	195	67
2	4245	200	68
2	4354	205	69
2	4461	210	70
2	4566	215	71
2	4675	220	72
2	4785	225	73
2	4891	230	74
2	5000	235	75
2	5108	240	76
2	5214	245	80
2	5322	250	81
2	5429	255	82
2	5537	260	83
2	5648	265	84
2	5753	270	85
2	5859	275	89
2	5968	280	90
2	6076	285	94
2	6183	290	95
2	6291	295	96
2	6399	300	97
2	6507	305	98
2	6613	310	99
2	6721	315	103
2	6830	320	104
2	6939	325	105
2	7046	330	106
2	7151	335	107
2	7260	340	108
2	7370	345	109
2	7476	350	110
2	7585	355	111
2	7693	360	112
2	7799	365	116
2	7907	370	117
2	8014	375	118
2	8122	380	119
2	8233	385	120
2	8338	390	121
2	8444	395	125
2	8553	400	126
2	8661	405	130
2	8768	410	131
2	8876	415	132
2	8984	420	133
2	9092	425	134
2	9198	430	135
2	9306	435	139
2	9415	440	140
2	9524	445	141
2	9631	450	142
2	9736	455	143
2	9845	460	144
2	9955	465	145
2	10061	470	146
2	10170	475	147
2	10278	480	148
2	10384	485	152
2	10492	490	153
2	10599	495	154
2	10707	500	155
2	10818	505	156
2	10923	510	157
2	11029	515	161
2	11138	520	162
2	11246	525	166
2	11353	530	167
2	11461	535	168
2	11569	540	169
2	11677	545	170
2	11783	550	171
2	11891	555	175
2	12000	560	176
2	12109	565	177
2	12216	570	178
2	12321	575	179
2	12430	580	180
2	12540	585	181
2	12646	590	182
2	12755	595	183
2	12863	600	184
2	12969	605	188
2	13077	610	189
2	13184	615	190
2	13292	620	191
2	13403	625	192
2	13508	630	193
2	13614	635	197
2	13723	640	198
2	13831	645	202
2	13938	650	203
2	14046	655	204
2	14154	660	205
2	14262	665	206
2	14368	670	207
2	14476	675	211
2	14585	680	212
2	14694	685	213
2	14801	690	214
2	14906	695	215
2	15015	700	216
2	15125	705	217
2	15231	710	218
2	15340	715	219
2	15448	720	220
2	15554	725	224
2	15662	730	225
2	15769	735	226
2	15877	740	227
2	15988	745	228
2	16093	750	229
2	16199	755	233
2	16308	760	234
2	16416	765	238
2	16523	770	239
2	16631	775	240
2	16739	780	241
2	16847	785	242
2	16953	790	243
2	17061	795	247
2	17170	800	248
2	17279	805	249
2	17386	810	250
2	17491	815	251
2	17600	820	252
2	17710	825	253
2	17816	830	254
2	17925	835	255
2	18033	840	256
2	18139	845	260
2	18247	850	261
2	18354	855	262
2	18462	860	263
2	18573	865	264
2	18678	870	265
2	18784	875	269
2	18893	880	270
2	19001	885	274
2	19108	890	275
2	19216	895	276
2	19324	900	277
2	19432	905	278
2	19538	910	279
2	19646	915	283
2	19755	920	284
2	19864	925	285
2	19971	930	286
2	20076	935	287
2	20185	940	288
2	20295	945	289
2	20401	950	290
2	20510	955	291
2	20618	960	292
2	20724	965	296
2	20832	970	297
2	20939	975	298
2	21047	980	299
2	21158	985	300
2	21263	990	301
2	21369	995	305
2	21478	1000	306
2	21586	1005	310
2	21693	1010	311
2	21801	1015	312
2	21909	1020	313
2	22017	1025	314
2	22123	1030	315
2	22231	1035	319
2	22340	1040	320
2	22449	1045	321
2	22556	1050	322
2	22661	1055	323
2	22770	1060	324
2	22880	1065	325
2	22986	1070	326
2	23095	1075	327
2	23203	1080	328
2	23309	1085	332
2	23417	1090	333
2	23524	1095	334
2	23632	1100	335
2	23743	1105	336
2	23848	1110	337
2	23954	1115	341
2	24063	1120	342
2	24171	1125	346
2	24278	1130	347
2	24386	1135	348
2	24494	1140	349
2	24602	1145	350
2	24708	1150	351
2	24816	1155	355
2	24925	1160	356
2	25034	1165	357
2	25141	1170	358
2	25246	1175	359
2	25355	1180	360
2	25465	1185	361
2	25571	1190	362
2	25680	1195	363
2	25788	1200	364
2	25894	1205	368
2	26002	1210	369
2	26109	1215	370
2	26217	1220	371
2	26328	1225	372
2	26433	1230	373
2	26539	1235	377
2	26648	1240	378
2	26756	1245	382
2	26863	1250	383
2	26971	1255	384
2	27079	1260	385
2	27187	1265	386
2	27293	1270	387
2	27401	1275	391
2	27510	1280	392
2	27619	1285	393
2	27726	1290	394
2	27831	1295	395
2	27940	1300	396
2	28050	1305	397
2	28156	1310	398
2	28265	1315	399
2	28373	1320	400
2	28479	1325	404
2	28587	1330	405
2	28694	1335	406
2	28802	1340	407
2	28913	1345	408
2	29018	1350	409
2	29124	1355	413
2	29233	1360	414
2	29341	1365	418
2	29448	1370	419
2	29556	1375	420
2	29664	1380	421
2	29772	1385	422
2	29878	1390	423
2	29986	1395	427
2	30095	1400	428
2	30204	1405	429
2	30311	1410	430
2	30416	1415	431
2	30525	1420	432
2	30635	1425	433
2	30741	1430	434
2	30850	1435	435
2	30958	1440	436
2	31064	1445	440
2	31172	1450	441
2	31279	1455	442
2	31387	1460	443
2	31498	1465	444
2	31603	1470	445
2	31709	1475	449
2	31818	1480	450
2	31926	1485	454
2	32033	1490	455
2	32141	1495	456
2	32249	1500	457
2	32357	1505	458
2	32463	1510	459
2	32571	1515	463
2	32680	1520	464
2	32789	1525	465
2	32896	1530	466
2	33001	1535	467
2	33110	1540	468
2	33220	1545	469
2	33326	1550	470
2	33435	1555	471
2	33543	1560	472
2	33649	1565	476
2	33757	1570	477
2	33864	1575	478
2	33972	1580	479
2	34083	1585	480
2	34188	1590	481
2	34294	1595	485
2	34403	1600	486
2	34511	1605	490
2	34618	1610	491
2	34726	1615	492
2	34834	1620	493
2	34942	1625	494
2	35048	1630	495
2	35156	1635	499
2	35265	1640	500
2	35374	1645	501
2	35481	1650	502
2	35586	1655	503
2	35695	1660	504
2	35805	1665	505
2	35911	1670	506
2	36020	1675	507
2	36128	1680	508
2	36234	1685	512
2	36342	1690	513
2	36449	1695	514
2	36557	1700	515
2	36668	1705	516
2	36773	1710	517
2	36879	1715	521
2	36988	1720	522
2	37096	1725	526
2	37203	1730	527
2	37311	1735	528
2	37419	1740	529
2	37527	1745	530
2	37633	1750	531
2	37741	1755	535
2	37850	1760	536
2	37959	1765	537
2	38066	1770	538
2	38171	1775	539
2	38280	1780	540
2	38390	1785	541
2	38496	1790	542
2	38605	1795	543
2	38713	1800	544
2	38819	1805	548
2	38927	1810	549
2	39034	1815	550
2	39142	1820	551
2	39253	1825	552
2	39358	1830	553
2	39464	1835	557
2	39573	1840	558
2	39681	1845	562
2	39788	1850	563
2	39896	1855	564
2	40004	1860	565
2	40112	1865	566
2	40218	1870	567
2	40326	1875	571
2	40435	1880	572
2	40544	1885	573
2	40651	1890	574
2	40756	1895	575
2	40865	1900	576
2	40975	1905	577
2	41081	1910	578
2	41190	1915	579
2	41298	1920	580
2	41404	1925	584
2	41512	1930	585
2	41619	1935	586
2	41727	1940	587
2	41838	1945	588
2	41943	1950	589
2	42049	1955	593
2	42158	1960	594
2	42266	1965	598
2	42373	1970	599
2	42481	1975	600
2	42589	1980	601
2	42697	1985	602
2	42803	1990	603
2	42911	1995	607
2	43020	2000	608
2	43129	2005	609
2	43236	2010	610
2	43341	2015	611
2	43450	2020	612
2	43560	2025	613
2	43666	2030	614
2	43775	2035	615
2	43883	2040	616
3	48	5	1
3	152	10	2
3	260	15	1
3	369	20	2
3	481	25	2
3	587	30	1
3	692	35	2
3	802	40	2
3	909	45	1
3	1016	50	2
3	1123	55	2
3	1231	60	1
3	1338	65	2
3	1445	70	2
3	1553	75	1
3	1663	80	2
3	1772	85	2
3	1878	90	1
3	1983	95	2
3	2091	100	2
3	2201	105	1
3	2307	110	2
3	2416	115	2
3	2524	120	1
3	2630	125	2
3	2738	130	2
3	2845	135	1
3	2953	140	2
3	3064	145	2
3	3169	150	1
3	3275	155	2
3	3384	160	2
3	3492	165	1
3	3599	170	2
3	3707	175	2
3	3815	180	1
3	3923	185	2
3	4029	190	2
3	4137	195	1
3	4246	200	2
3	4355	205	2
3	4462	210	1
3	4567	215	2
3	4676	220	2
3	4786	225	1
3	4892	230	2
3	5001	235	2
3	5109	240	1
3	5215	245	2
3	5323	250	2
3	5430	255	1
3	5538	260	2
3	5649	265	2
3	5754	270	1
3	5860	275	2
3	5969	280	2
3	6077	285	1
3	6184	290	2
3	6292	295	2
3	6400	300	1
3	6508	305	2
3	6614	310	2
3	6722	315	1
3	6831	320	2
3	6940	325	2
3	7047	330	1
3	7152	335	2
3	7261	340	2
3	7371	345	1
3	7477	350	2
3	7586	355	2
3	7694	360	1
3	7800	365	2
3	7908	370	2
3	8015	375	1
3	8123	380	2
3	8234	385	2
3	8339	390	1
3	8445	395	2
3	8554	400	2
3	8662	405	1
3	8769	410	2
3	8877	415	2
3	8985	420	1
3	9093	425	2
3	9199	430	2
3	9307	435	1
3	9416	440	2
3	9525	445	2
3	9632	450	1
3	9737	455	2
3	9846	460	2
3	9956	465	1
3	10062	470	2
3	10171	475	2
3	10279	480	1
3	10385	485	2
3	10493	490	2
3	10600	495	1
3	10708	500	2
3	10819	505	2
3	10924	510	1
3	11030	515	2
3	11139	520	2
3	11247	525	1
3	11354	530	2
3	11462	535	2
3	11570	540	1
3	11678	545	2
3	11784	550	2
3	11892	555	1
3	12001	560	2
3	12110	565	2
3	12217	570	1
3	12322	575	2
3	12431	580	2
3	12541	585	1
3	12647	590	2
3	12756	595	2
3	12864	600	1
3	12970	605	2
3	13078	610	2
3	13185	615	1
3	13293	620	2
3	13404	625	2
3	13509	630	1
3	13615	635	2
3	13724	640	2
3	13832	645	1
3	13939	650	2
3	14047	655	2
3	14155	660	1
3	14263	665	2
3	14369	670	2
3	14477	675	1
3	14586	680	2
3	14695	685	2
3	14802	690	1
3	14907	695	2
3	15016	700	2
3	15126	705	1
3	15232	710	2
3	15341	715	2
3	15449	720	1
3	15555	725	2
3	15663	730	2
3	15770	735	1
3	15878	740	2
3	15989	745	2
3	16094	750	1
3	16200	755	2
3	16309	760	2
3	16417	765	1
3	16524	770	2
3	16632	775	2
3	16740	780	1
3	16848	785	2
3	16954	790	2
3	17062	795	1
3	17171	800	2
3	17280	805	2
3	17387	810	1
3	17492	815	2
3	17601	820	2
3	17711	825	1
3	17817	830	2
3	17926	835	2
3	18034	840	1
3	18140	845	2
3	18248	850	2
3	18355	855	1
3	18463	860	2
3	18574	865	2
3	18679	870	1
3	18785	875	2
3	18894	880	2
3	19002	885	1
3	19109	890	2
3	19217	895	2
3	19325	900	1
3	19433	905	2
3	19539	910	2
3	19647	915	1
3	19756	920	2
3	19865	925	2
3	19972	930	1
3	20077	935	2
3	20186	940	2
3	20296	945	1
3	20402	950	2
3	20511	955	2
3	20619	960	1
3	20725	965	2
3	20833	970	2
3	20940	975	1
3	21048	980	2
3	21159	985	2
3	21264	990	1
3	21370	995	2
3	21479	1000	2
3	21587	1005	1
3	21694	1010	2
3	21802	1015	2
3	21910	1020	1
3	22018	1025	2
3	22124	1030	2
3	22232	1035	1
3	22341	1040	2
3	22450	1045	2
3	22557	1050	1
3	22662	1055	2
3	22771	1060	2
3	22881	1065	1
3	22987	1070	2
3	23096	1075	2
3	23204	1080	1
3	23310	1085	2
3	23418	1090	2
3	23525	1095	1
3	23633	1100	2
3	23744	1105	2
3	23849	1110	1
3	23955	1115	2
3	24064	1120	2
3	24172	1125	1
3	24279	1130	2
3	24387	1135	2
3	24495	1140	1
3	24603	1145	2
3	24709	1150	2
3	24817	1155	1
3	24926	1160	2
3	25035	1165	2
3	25142	1170	1
3	25247	1175	2
3	25356	1180	2
3	25466	1185	1
3	25572	1190	2
3	25681	1195	2
3	25789	1200	1
3	25895	1205	2
3	26003	1210	2
3	26110	1215	1
3	26218	1220	2
3	26329	1225	2
3	26434	1230	1
3	26540	1235	2
3	26649	1240	2
3	26757	1245	1
3	26864	1250	2
3	26972	1255	2
3	27080	1260	1
3	27188	1265	2
3	27294	1270	2
3	27402	1275	1
3	27511	1280	2
3	27620	1285	2
3	27727	1290	1
3	27832	1295	2
3	27941	1300	2
3	28051	1305	1
3	28157	1310	2
3	28266	1315	2
3	28374	1320	1
3	28480	1325	2
3	28588	1330	2
3	28695	1335	1
3	28803	1340	2
3	28914	1345	2
3	29019	1350	1
3	29125	1355	2
3	29234	1360	2
3	29342	1365	1
3	29449	1370	2
3	29557	1375	2
3	29665	1380	1
3	29773	1385	2
3	29879	1390	2
3	29987	1395	1
3	30096	1400	2
3	30205	1405	2
3	30312	1410	1
3	30417	1415	2
3	30526	1420	2
3	30636	1425	1
3	30742	1430	2
3	30851	1435	2
3	30959	1440	1
3	31065	1445	2
3	31173	1450	2
3	31280	1455	1
3	31388	1460	2
3	31499	1465	2
3	31604	1470	1
3	31710	1475	2
3	31819	1480	2
3	31927	1485	1
3	32034	1490	2
3	32142	1495	2
3	32250	1500	1
3	32358	1505	2
3	32464	1510	2
3	32572	1515	1
3	32681	1520	2
3	32790	1525	2
3	32897	1530	1
3	33002	1535	2
3	33111	1540	2
3	33221	1545	1
3	33327	1550	2
3	33436	1555	2
3	33544	1560	1
3	33650	1565	2
3	33758	1570	2
3	33865	1575	1
3	33973	1580	2
3	34084	1585	2
3	34189	1590	1
3	34295	1595	2
3	34404	1600	2
3	34512	1605	1
3	34619	1610	2
3	34727	1615	2
3	34835	1620	1
3	34943	1625	2
3	35049	1630	2
3	35157	1635	1
3	35266	1640	2
3	35375	1645	2
3	35482	1650	1
3	35587	1655	2
3	35696	1660	2
3	35806	1665	1
3	35912	1670	2
3	36021	1675	2
3	36129	1680	1
3	36235	1685	2
3	36343	1690	2
3	36450	1695	1
3	36558	1700	2
3	36669	1705	2
3	36774	1710	1
3	36880	1715	2
3	36989	1720	2
3	37097	1725	1
3	37204	1730	2
3	37312	1735	2
3	37420	1740	1
3	37528	1745	2
3	37634	1750	2
3	37742	1755	1
3	37851	1760	2
3	37960	1765	2
3	38067	1770	1
3	38172	1775	2
3	38281	1780	2
3	38391	1785	1
3	38497	1790	2
3	38606	1795	2
3	38714	1800	1
3	38820	1805	2
3	38928	1810	2
3	39035	1815	1
3	39143	1820	2
3	39254	1825	2
3	39359	1830	1
3	39465	1835	2
3	39574	1840	2
3	39682	1845	1
3	39789	1850	2
3	39897	1855	2
3	40005	1860	1
3	40113	1865	2
3	40219	1870	2
3	40327	1875	1
3	40436	1880	2
3	40545	1885	2
3	40652	1890	1
3	40757	1895	2
3	40866	1900	2
3	40976	1905	1
3	41082	1910	2
3	41191	1915	2
3	41299	1920	1
3	41405	1925	2
3	41513	1930	2
3	41620	1935	1
3	41728	1940	2
3	41839	1945	2
3	41944	1950	1
3	42050	1955	2
3	42159	1960	2
3	42267	1965	1
3	42374	1970	2
3	42482	1975	2
3	42590	1980	1
3	42698	1985	2
3	42804	1990	2
3	42912	1995	1
3	43021	2000	2
3	43130	2005	2
3	43237	2010	1
3	43342	2015	2
3	43451	2020	2
3	43561	2025	1
3	43667	2030	2
3	43776	2035	2
3	43884	2040	1
4	49	5	4
4	153	10	5
4	261	15	5
4	370	20	5
4	482	25	5
4	588	30	5
4	693	35	5
4	803	40	5
4	910	45	5
4	1017	50	5
4	1124	55	5
4	1232	60	5
4	1339	65	5
4	1446	70	5
4	1554	75	5
4	1664	80	5
4	1773	85	5
4	1879	90	5
4	1984	95	5
4	2092	100	5
4	2202	105	5
4	2308	110	5
4	2417	115	5
4	2525	120	5
4	2631	125	5
4	2739	130	5
4	2846	135	5
4	2954	140	5
4	3065	145	5
4	3170	150	5
4	3276	155	5
4	3385	160	5
4	3493	165	5
4	3600	170	5
4	3708	175	5
4	3816	180	5
4	3924	185	5
4	4030	190	5
4	4138	195	5
4	4247	200	5
4	4356	205	5
4	4463	210	5
4	4568	215	5
4	4677	220	5
4	4787	225	5
4	4893	230	5
4	5002	235	5
4	5110	240	5
4	5216	245	5
4	5324	250	5
4	5431	255	5
4	5539	260	5
4	5650	265	5
4	5755	270	5
4	5861	275	5
4	5970	280	5
4	6078	285	5
4	6185	290	5
4	6293	295	5
4	6401	300	5
4	6509	305	5
4	6615	310	5
4	6723	315	5
4	6832	320	5
4	6941	325	5
4	7048	330	5
4	7153	335	5
4	7262	340	5
4	7372	345	5
4	7478	350	5
4	7587	355	5
4	7695	360	5
4	7801	365	5
4	7909	370	5
4	8016	375	5
4	8124	380	5
4	8235	385	5
4	8340	390	5
4	8446	395	5
4	8555	400	5
4	8663	405	5
4	8770	410	5
4	8878	415	5
4	8986	420	5
4	9094	425	5
4	9200	430	5
4	9308	435	5
4	9417	440	5
4	9526	445	5
4	9633	450	5
4	9738	455	5
4	9847	460	5
4	9957	465	5
4	10063	470	5
4	10172	475	5
4	10280	480	5
4	10386	485	5
4	10494	490	5
4	10601	495	5
4	10709	500	5
4	10820	505	5
4	10925	510	5
4	11031	515	5
4	11140	520	5
4	11248	525	5
4	11355	530	5
4	11463	535	5
4	11571	540	5
4	11679	545	5
4	11785	550	5
4	11893	555	5
4	12002	560	5
4	12111	565	5
4	12218	570	5
4	12323	575	5
4	12432	580	5
4	12542	585	5
4	12648	590	5
4	12757	595	5
4	12865	600	5
4	12971	605	5
4	13079	610	5
4	13186	615	5
4	13294	620	5
4	13405	625	5
4	13510	630	5
4	13616	635	5
4	13725	640	5
4	13833	645	5
4	13940	650	5
4	14048	655	5
4	14156	660	5
4	14264	665	5
4	14370	670	5
4	14478	675	5
4	14587	680	5
4	14696	685	5
4	14803	690	5
4	14908	695	5
4	15017	700	5
4	15127	705	5
4	15233	710	5
4	15342	715	5
4	15450	720	5
4	15556	725	5
4	15664	730	5
4	15771	735	5
4	15879	740	5
4	15990	745	5
4	16095	750	5
4	16201	755	5
4	16310	760	5
4	16418	765	5
4	16525	770	5
4	16633	775	5
4	16741	780	5
4	16849	785	5
4	16955	790	5
4	17063	795	5
4	17172	800	5
4	17281	805	5
4	17388	810	5
4	17493	815	5
4	17602	820	5
4	17712	825	5
4	17818	830	5
4	17927	835	5
4	18035	840	5
4	18141	845	5
4	18249	850	5
4	18356	855	5
4	18464	860	5
4	18575	865	5
4	18680	870	5
4	18786	875	5
4	18895	880	5
4	19003	885	5
4	19110	890	5
4	19218	895	5
4	19326	900	5
4	19434	905	5
4	19540	910	5
4	19648	915	5
4	19757	920	5
4	19866	925	5
4	19973	930	5
4	20078	935	5
4	20187	940	5
4	20297	945	5
4	20403	950	5
4	20512	955	5
4	20620	960	5
4	20726	965	5
4	20834	970	5
4	20941	975	5
4	21049	980	5
4	21160	985	5
4	21265	990	5
4	21371	995	5
4	21480	1000	5
4	21588	1005	5
4	21695	1010	5
4	21803	1015	5
4	21911	1020	5
4	22019	1025	5
4	22125	1030	5
4	22233	1035	5
4	22342	1040	5
4	22451	1045	5
4	22558	1050	5
4	22663	1055	5
4	22772	1060	5
4	22882	1065	5
4	22988	1070	5
4	23097	1075	5
4	23205	1080	5
4	23311	1085	5
4	23419	1090	5
4	23526	1095	5
4	23634	1100	5
4	23745	1105	5
4	23850	1110	5
4	23956	1115	5
4	24065	1120	5
4	24173	1125	5
4	24280	1130	5
4	24388	1135	5
4	24496	1140	5
4	24604	1145	5
4	24710	1150	5
4	24818	1155	5
4	24927	1160	5
4	25036	1165	5
4	25143	1170	5
4	25248	1175	5
4	25357	1180	5
4	25467	1185	5
4	25573	1190	5
4	25682	1195	5
4	25790	1200	5
4	25896	1205	5
4	26004	1210	5
4	26111	1215	5
4	26219	1220	5
4	26330	1225	5
4	26435	1230	5
4	26541	1235	5
4	26650	1240	5
4	26758	1245	5
4	26865	1250	5
4	26973	1255	5
4	27081	1260	5
4	27189	1265	5
4	27295	1270	5
4	27403	1275	5
4	27512	1280	5
4	27621	1285	5
4	27728	1290	5
4	27833	1295	5
4	27942	1300	5
4	28052	1305	5
4	28158	1310	5
4	28267	1315	5
4	28375	1320	5
4	28481	1325	5
4	28589	1330	5
4	28696	1335	5
4	28804	1340	5
4	28915	1345	5
4	29020	1350	5
4	29126	1355	5
4	29235	1360	5
4	29343	1365	5
4	29450	1370	5
4	29558	1375	5
4	29666	1380	5
4	29774	1385	5
4	29880	1390	5
4	29988	1395	5
4	30097	1400	5
4	30206	1405	5
4	30313	1410	5
4	30418	1415	5
4	30527	1420	5
4	30637	1425	5
4	30743	1430	5
4	30852	1435	5
4	30960	1440	5
4	31066	1445	5
4	31174	1450	5
4	31281	1455	5
4	31389	1460	5
4	31500	1465	5
4	31605	1470	5
4	31711	1475	5
4	31820	1480	5
4	31928	1485	5
4	32035	1490	5
4	32143	1495	5
4	32251	1500	5
4	32359	1505	5
4	32465	1510	5
4	32573	1515	5
4	32682	1520	5
4	32791	1525	5
4	32898	1530	5
4	33003	1535	5
4	33112	1540	5
4	33222	1545	5
4	33328	1550	5
4	33437	1555	5
4	33545	1560	5
4	33651	1565	5
4	33759	1570	5
4	33866	1575	5
4	33974	1580	5
4	34085	1585	5
4	34190	1590	5
4	34296	1595	5
4	34405	1600	5
4	34513	1605	5
4	34620	1610	5
4	34728	1615	5
4	34836	1620	5
4	34944	1625	5
4	35050	1630	5
4	35158	1635	5
4	35267	1640	5
4	35376	1645	5
4	35483	1650	5
4	35588	1655	5
4	35697	1660	5
4	35807	1665	5
4	35913	1670	5
4	36022	1675	5
4	36130	1680	5
4	36236	1685	5
4	36344	1690	5
4	36451	1695	5
4	36559	1700	5
4	36670	1705	5
4	36775	1710	5
4	36881	1715	5
4	36990	1720	5
4	37098	1725	5
4	37205	1730	5
4	37313	1735	5
4	37421	1740	5
4	37529	1745	5
4	37635	1750	5
4	37743	1755	5
4	37852	1760	5
4	37961	1765	5
4	38068	1770	5
4	38173	1775	5
4	38282	1780	5
4	38392	1785	5
4	38498	1790	5
4	38607	1795	5
4	38715	1800	5
4	38821	1805	5
4	38929	1810	5
4	39036	1815	5
4	39144	1820	5
4	39255	1825	5
4	39360	1830	5
4	39466	1835	5
4	39575	1840	5
4	39683	1845	5
4	39790	1850	5
4	39898	1855	5
4	40006	1860	5
4	40114	1865	5
4	40220	1870	5
4	40328	1875	5
4	40437	1880	5
4	40546	1885	5
4	40653	1890	5
4	40758	1895	5
4	40867	1900	5
4	40977	1905	5
4	41083	1910	5
4	41192	1915	5
4	41300	1920	5
4	41406	1925	5
4	41514	1930	5
4	41621	1935	5
4	41729	1940	5
4	41840	1945	5
4	41945	1950	5
4	42051	1955	5
4	42160	1960	5
4	42268	1965	5
4	42375	1970	5
4	42483	1975	5
4	42591	1980	5
4	42699	1985	5
4	42805	1990	5
4	42913	1995	5
4	43022	2000	5
4	43131	2005	5
4	43238	2010	5
4	43343	2015	5
4	43452	2020	5
4	43562	2025	5
4	43668	2030	5
4	43777	2035	5
4	43885	2040	5
5	50	5	1
5	154	10	1
5	262	15	1
5	371	20	1
5	483	25	2
5	589	30	1
5	694	35	2
5	804	40	1
5	911	45	3
5	1018	50	1
5	1125	55	2
5	1233	60	1
5	1340	65	3
5	1447	70	1
5	1555	75	2
5	1665	80	1
5	1774	85	2
5	1880	90	3
5	1985	95	1
5	2093	100	2
5	2203	105	2
5	2309	110	3
5	2418	115	1
5	2526	120	2
5	2632	125	2
5	2740	130	3
5	2847	135	1
5	2955	140	2
5	3066	145	2
5	3171	150	3
5	3277	155	1
5	3386	160	2
5	3494	165	2
5	3601	170	3
5	3709	175	1
5	3817	180	2
5	3925	185	2
5	4031	190	3
5	4139	195	1
5	4248	200	2
5	4357	205	2
5	4464	210	3
5	4569	215	1
5	4678	220	2
5	4788	225	2
5	4894	230	3
5	5003	235	1
5	5111	240	2
5	5217	245	2
5	5325	250	3
5	5432	255	1
5	5540	260	2
5	5651	265	2
5	5756	270	3
5	5862	275	1
5	5971	280	2
5	6079	285	2
5	6186	290	3
5	6294	295	1
5	6402	300	2
5	6510	305	2
5	6616	310	3
5	6724	315	1
5	6833	320	2
5	6942	325	2
5	7049	330	3
5	7154	335	1
5	7263	340	2
5	7373	345	2
5	7479	350	3
5	7588	355	1
5	7696	360	2
5	7802	365	2
5	7910	370	3
5	8017	375	1
5	8125	380	2
5	8236	385	2
5	8341	390	3
5	8447	395	1
5	8556	400	2
5	8664	405	2
5	8771	410	3
5	8879	415	1
5	8987	420	2
5	9095	425	2
5	9201	430	3
5	9309	435	1
5	9418	440	2
5	9527	445	2
5	9634	450	3
5	9739	455	1
5	9848	460	2
5	9958	465	2
5	10064	470	3
5	10173	475	1
5	10281	480	2
5	10387	485	2
5	10495	490	3
5	10602	495	1
5	10710	500	2
5	10821	505	2
5	10926	510	3
5	11032	515	1
5	11141	520	2
5	11249	525	2
5	11356	530	3
5	11464	535	1
5	11572	540	2
5	11680	545	2
5	11786	550	3
5	11894	555	1
5	12003	560	2
5	12112	565	2
5	12219	570	3
5	12324	575	1
5	12433	580	2
5	12543	585	2
5	12649	590	3
5	12758	595	1
5	12866	600	2
5	12972	605	2
5	13080	610	3
5	13187	615	1
5	13295	620	2
5	13406	625	2
5	13511	630	3
5	13617	635	1
5	13726	640	2
5	13834	645	2
5	13941	650	3
5	14049	655	1
5	14157	660	2
5	14265	665	2
5	14371	670	3
5	14479	675	1
5	14588	680	2
5	14697	685	2
5	14804	690	3
5	14909	695	1
5	15018	700	2
5	15128	705	2
5	15234	710	3
5	15343	715	1
5	15451	720	2
5	15557	725	2
5	15665	730	3
5	15772	735	1
5	15880	740	2
5	15991	745	2
5	16096	750	3
5	16202	755	1
5	16311	760	2
5	16419	765	2
5	16526	770	3
5	16634	775	1
5	16742	780	2
5	16850	785	2
5	16956	790	3
5	17064	795	1
5	17173	800	2
5	17282	805	2
5	17389	810	3
5	17494	815	1
5	17603	820	2
5	17713	825	2
5	17819	830	3
5	17928	835	1
5	18036	840	2
5	18142	845	2
5	18250	850	3
5	18357	855	1
5	18465	860	2
5	18576	865	2
5	18681	870	3
5	18787	875	1
5	18896	880	2
5	19004	885	2
5	19111	890	3
5	19219	895	1
5	19327	900	2
5	19435	905	2
5	19541	910	3
5	19649	915	1
5	19758	920	2
5	19867	925	2
5	19974	930	3
5	20079	935	1
5	20188	940	2
5	20298	945	2
5	20404	950	3
5	20513	955	1
5	20621	960	2
5	20727	965	2
5	20835	970	3
5	20942	975	1
5	21050	980	2
5	21161	985	2
5	21266	990	3
5	21372	995	1
5	21481	1000	2
5	21589	1005	2
5	21696	1010	3
5	21804	1015	1
5	21912	1020	2
5	22020	1025	2
5	22126	1030	3
5	22234	1035	1
5	22343	1040	2
5	22452	1045	2
5	22559	1050	3
5	22664	1055	1
5	22773	1060	2
5	22883	1065	2
5	22989	1070	3
5	23098	1075	1
5	23206	1080	2
5	23312	1085	2
5	23420	1090	3
5	23527	1095	1
5	23635	1100	2
5	23746	1105	2
5	23851	1110	3
5	23957	1115	1
5	24066	1120	2
5	24174	1125	2
5	24281	1130	3
5	24389	1135	1
5	24497	1140	2
5	24605	1145	2
5	24711	1150	3
5	24819	1155	1
5	24928	1160	2
5	25037	1165	2
5	25144	1170	3
5	25249	1175	1
5	25358	1180	2
5	25468	1185	2
5	25574	1190	3
5	25683	1195	1
5	25791	1200	2
5	25897	1205	2
5	26005	1210	3
5	26112	1215	1
5	26220	1220	2
5	26331	1225	2
5	26436	1230	3
5	26542	1235	1
5	26651	1240	2
5	26759	1245	2
5	26866	1250	3
5	26974	1255	1
5	27082	1260	2
5	27190	1265	2
5	27296	1270	3
5	27404	1275	1
5	27513	1280	2
5	27622	1285	2
5	27729	1290	3
5	27834	1295	1
5	27943	1300	2
5	28053	1305	2
5	28159	1310	3
5	28268	1315	1
5	28376	1320	2
5	28482	1325	2
5	28590	1330	3
5	28697	1335	1
5	28805	1340	2
5	28916	1345	2
5	29021	1350	3
5	29127	1355	1
5	29236	1360	2
5	29344	1365	2
5	29451	1370	3
5	29559	1375	1
5	29667	1380	2
5	29775	1385	2
5	29881	1390	3
5	29989	1395	1
5	30098	1400	2
5	30207	1405	2
5	30314	1410	3
5	30419	1415	1
5	30528	1420	2
5	30638	1425	2
5	30744	1430	3
5	30853	1435	1
5	30961	1440	2
5	31067	1445	2
5	31175	1450	3
5	31282	1455	1
5	31390	1460	2
5	31501	1465	2
5	31606	1470	3
5	31712	1475	1
5	31821	1480	2
5	31929	1485	2
5	32036	1490	3
5	32144	1495	1
5	32252	1500	2
5	32360	1505	2
5	32466	1510	3
5	32574	1515	1
5	32683	1520	2
5	32792	1525	2
5	32899	1530	3
5	33004	1535	1
5	33113	1540	2
5	33223	1545	2
5	33329	1550	3
5	33438	1555	1
5	33546	1560	2
5	33652	1565	2
5	33760	1570	3
5	33867	1575	1
5	33975	1580	2
5	34086	1585	2
5	34191	1590	3
5	34297	1595	1
5	34406	1600	2
5	34514	1605	2
5	34621	1610	3
5	34729	1615	1
5	34837	1620	2
5	34945	1625	2
5	35051	1630	3
5	35159	1635	1
5	35268	1640	2
5	35377	1645	2
5	35484	1650	3
5	35589	1655	1
5	35698	1660	2
5	35808	1665	2
5	35914	1670	3
5	36023	1675	1
5	36131	1680	2
5	36237	1685	2
5	36345	1690	3
5	36452	1695	1
5	36560	1700	2
5	36671	1705	2
5	36776	1710	3
5	36882	1715	1
5	36991	1720	2
5	37099	1725	2
5	37206	1730	3
5	37314	1735	1
5	37422	1740	2
5	37530	1745	2
5	37636	1750	3
5	37744	1755	1
5	37853	1760	2
5	37962	1765	2
5	38069	1770	3
5	38174	1775	1
5	38283	1780	2
5	38393	1785	2
5	38499	1790	3
5	38608	1795	1
5	38716	1800	2
5	38822	1805	2
5	38930	1810	3
5	39037	1815	1
5	39145	1820	2
5	39256	1825	2
5	39361	1830	3
5	39467	1835	1
5	39576	1840	2
5	39684	1845	2
5	39791	1850	3
5	39899	1855	1
5	40007	1860	2
5	40115	1865	2
5	40221	1870	3
5	40329	1875	1
5	40438	1880	2
5	40547	1885	2
5	40654	1890	3
5	40759	1895	1
5	40868	1900	2
5	40978	1905	2
5	41084	1910	3
5	41193	1915	1
5	41301	1920	2
5	41407	1925	2
5	41515	1930	3
5	41622	1935	1
5	41730	1940	2
5	41841	1945	2
5	41946	1950	3
5	42052	1955	1
5	42161	1960	2
5	42269	1965	2
5	42376	1970	3
5	42484	1975	1
5	42592	1980	2
5	42700	1985	2
5	42806	1990	3
5	42914	1995	1
5	43023	2000	2
5	43132	2005	2
5	43239	2010	3
5	43344	2015	1
5	43453	2020	2
5	43563	2025	2
5	43669	2030	3
5	43778	2035	1
5	43886	2040	2
6	51	5	2
6	155	10	2
6	263	15	3
6	372	20	2
6	484	25	3
6	590	30	2
6	695	35	3
6	805	40	2
6	912	45	3
6	1019	50	2
6	1126	55	3
6	1234	60	2
6	1341	65	3
6	1448	70	2
6	1556	75	3
6	1666	80	2
6	1775	85	3
6	1881	90	2
6	1986	95	3
6	2094	100	2
6	2204	105	3
6	2310	110	2
6	2419	115	3
6	2527	120	2
6	2633	125	3
6	2741	130	2
6	2848	135	3
6	2956	140	2
6	3067	145	3
6	3172	150	2
6	3278	155	3
6	3387	160	2
6	3495	165	3
6	3602	170	2
6	3710	175	3
6	3818	180	2
6	3926	185	3
6	4032	190	2
6	4140	195	3
6	4249	200	2
6	4358	205	3
6	4465	210	2
6	4570	215	3
6	4679	220	2
6	4789	225	3
6	4895	230	2
6	5004	235	3
6	5112	240	2
6	5218	245	3
6	5326	250	2
6	5433	255	3
6	5541	260	2
6	5652	265	3
6	5757	270	2
6	5863	275	3
6	5972	280	2
6	6080	285	3
6	6187	290	2
6	6295	295	3
6	6403	300	2
6	6511	305	3
6	6617	310	2
6	6725	315	3
6	6834	320	2
6	6943	325	3
6	7050	330	2
6	7155	335	3
6	7264	340	2
6	7374	345	3
6	7480	350	2
6	7589	355	3
6	7697	360	2
6	7803	365	3
6	7911	370	2
6	8018	375	3
6	8126	380	2
6	8237	385	3
6	8342	390	2
6	8448	395	3
6	8557	400	2
6	8665	405	3
6	8772	410	2
6	8880	415	3
6	8988	420	2
6	9096	425	3
6	9202	430	2
6	9310	435	3
6	9419	440	2
6	9528	445	3
6	9635	450	2
6	9740	455	3
6	9849	460	2
6	9959	465	3
6	10065	470	2
6	10174	475	3
6	10282	480	2
6	10388	485	3
6	10496	490	2
6	10603	495	3
6	10711	500	2
6	10822	505	3
6	10927	510	2
6	11033	515	3
6	11142	520	2
6	11250	525	3
6	11357	530	2
6	11465	535	3
6	11573	540	2
6	11681	545	3
6	11787	550	2
6	11895	555	3
6	12004	560	2
6	12113	565	3
6	12220	570	2
6	12325	575	3
6	12434	580	2
6	12544	585	3
6	12650	590	2
6	12759	595	3
6	12867	600	2
6	12973	605	3
6	13081	610	2
6	13188	615	3
6	13296	620	2
6	13407	625	3
6	13512	630	2
6	13618	635	3
6	13727	640	2
6	13835	645	3
6	13942	650	2
6	14050	655	3
6	14158	660	2
6	14266	665	3
6	14372	670	2
6	14480	675	3
6	14589	680	2
6	14698	685	3
6	14805	690	2
6	14910	695	3
6	15019	700	2
6	15129	705	3
6	15235	710	2
6	15344	715	3
6	15452	720	2
6	15558	725	3
6	15666	730	2
6	15773	735	3
6	15881	740	2
6	15992	745	3
6	16097	750	2
6	16203	755	3
6	16312	760	2
6	16420	765	3
6	16527	770	2
6	16635	775	3
6	16743	780	2
6	16851	785	3
6	16957	790	2
6	17065	795	3
6	17174	800	2
6	17283	805	3
6	17390	810	2
6	17495	815	3
6	17604	820	2
6	17714	825	3
6	17820	830	2
6	17929	835	3
6	18037	840	2
6	18143	845	3
6	18251	850	2
6	18358	855	3
6	18466	860	2
6	18577	865	3
6	18682	870	2
6	18788	875	3
6	18897	880	2
6	19005	885	3
6	19112	890	2
6	19220	895	3
6	19328	900	2
6	19436	905	3
6	19542	910	2
6	19650	915	3
6	19759	920	2
6	19868	925	3
6	19975	930	2
6	20080	935	3
6	20189	940	2
6	20299	945	3
6	20405	950	2
6	20514	955	3
6	20622	960	2
6	20728	965	3
6	20836	970	2
6	20943	975	3
6	21051	980	2
6	21162	985	3
6	21267	990	2
6	21373	995	3
6	21482	1000	2
6	21590	1005	3
6	21697	1010	2
6	21805	1015	3
6	21913	1020	2
6	22021	1025	3
6	22127	1030	2
6	22235	1035	3
6	22344	1040	2
6	22453	1045	3
6	22560	1050	2
6	22665	1055	3
6	22774	1060	2
6	22884	1065	3
6	22990	1070	2
6	23099	1075	3
6	23207	1080	2
6	23313	1085	3
6	23421	1090	2
6	23528	1095	3
6	23636	1100	2
6	23747	1105	3
6	23852	1110	2
6	23958	1115	3
6	24067	1120	2
6	24175	1125	3
6	24282	1130	2
6	24390	1135	3
6	24498	1140	2
6	24606	1145	3
6	24712	1150	2
6	24820	1155	3
6	24929	1160	2
6	25038	1165	3
6	25145	1170	2
6	25250	1175	3
6	25359	1180	2
6	25469	1185	3
6	25575	1190	2
6	25684	1195	3
6	25792	1200	2
6	25898	1205	3
6	26006	1210	2
6	26113	1215	3
6	26221	1220	2
6	26332	1225	3
6	26437	1230	2
6	26543	1235	3
6	26652	1240	2
6	26760	1245	3
6	26867	1250	2
6	26975	1255	3
6	27083	1260	2
6	27191	1265	3
6	27297	1270	2
6	27405	1275	3
6	27514	1280	2
6	27623	1285	3
6	27730	1290	2
6	27835	1295	3
6	27944	1300	2
6	28054	1305	3
6	28160	1310	2
6	28269	1315	3
6	28377	1320	2
6	28483	1325	3
6	28591	1330	2
6	28698	1335	3
6	28806	1340	2
6	28917	1345	3
6	29022	1350	2
6	29128	1355	3
6	29237	1360	2
6	29345	1365	3
6	29452	1370	2
6	29560	1375	3
6	29668	1380	2
6	29776	1385	3
6	29882	1390	2
6	29990	1395	3
6	30099	1400	2
6	30208	1405	3
6	30315	1410	2
6	30420	1415	3
6	30529	1420	2
6	30639	1425	3
6	30745	1430	2
6	30854	1435	3
6	30962	1440	2
6	31068	1445	3
6	31176	1450	2
6	31283	1455	3
6	31391	1460	2
6	31502	1465	3
6	31607	1470	2
6	31713	1475	3
6	31822	1480	2
6	31930	1485	3
6	32037	1490	2
6	32145	1495	3
6	32253	1500	2
6	32361	1505	3
6	32467	1510	2
6	32575	1515	3
6	32684	1520	2
6	32793	1525	3
6	32900	1530	2
6	33005	1535	3
6	33114	1540	2
6	33224	1545	3
6	33330	1550	2
6	33439	1555	3
6	33547	1560	2
6	33653	1565	3
6	33761	1570	2
6	33868	1575	3
6	33976	1580	2
6	34087	1585	3
6	34192	1590	2
6	34298	1595	3
6	34407	1600	2
6	34515	1605	3
6	34622	1610	2
6	34730	1615	3
6	34838	1620	2
6	34946	1625	3
6	35052	1630	2
6	35160	1635	3
6	35269	1640	2
6	35378	1645	3
6	35485	1650	2
6	35590	1655	3
6	35699	1660	2
6	35809	1665	3
6	35915	1670	2
6	36024	1675	3
6	36132	1680	2
6	36238	1685	3
6	36346	1690	2
6	36453	1695	3
6	36561	1700	2
6	36672	1705	3
6	36777	1710	2
6	36883	1715	3
6	36992	1720	2
6	37100	1725	3
6	37207	1730	2
6	37315	1735	3
6	37423	1740	2
6	37531	1745	3
6	37637	1750	2
6	37745	1755	3
6	37854	1760	2
6	37963	1765	3
6	38070	1770	2
6	38175	1775	3
6	38284	1780	2
6	38394	1785	3
6	38500	1790	2
6	38609	1795	3
6	38717	1800	2
6	38823	1805	3
6	38931	1810	2
6	39038	1815	3
6	39146	1820	2
6	39257	1825	3
6	39362	1830	2
6	39468	1835	3
6	39577	1840	2
6	39685	1845	3
6	39792	1850	2
6	39900	1855	3
6	40008	1860	2
6	40116	1865	3
6	40222	1870	2
6	40330	1875	3
6	40439	1880	2
6	40548	1885	3
6	40655	1890	2
6	40760	1895	3
6	40869	1900	2
6	40979	1905	3
6	41085	1910	2
6	41194	1915	3
6	41302	1920	2
6	41408	1925	3
6	41516	1930	2
6	41623	1935	3
6	41731	1940	2
6	41842	1945	3
6	41947	1950	2
6	42053	1955	3
6	42162	1960	2
6	42270	1965	3
6	42377	1970	2
6	42485	1975	3
6	42593	1980	2
6	42701	1985	3
6	42807	1990	2
6	42915	1995	3
6	43024	2000	2
6	43133	2005	3
6	43240	2010	2
6	43345	2015	3
6	43454	2020	2
6	43564	2025	3
6	43670	2030	2
6	43779	2035	3
6	43887	2040	2
7	52	5	2
7	156	10	2
7	264	15	3
7	373	20	2
7	485	25	3
7	591	30	2
7	696	35	5
7	806	40	2
7	913	45	5
7	1020	50	2
7	1127	55	5
7	1235	60	2
7	1342	65	5
7	1449	70	2
7	1557	75	4
7	1667	80	3
7	1776	85	3
7	1882	90	5
7	1987	95	3
7	2095	100	5
7	2205	105	3
7	2311	110	4
7	2420	115	5
7	2528	120	7
7	2634	125	4
7	2742	130	5
7	2849	135	6
7	2957	140	6
7	3068	145	7
7	3173	150	9
7	3279	155	6
7	3388	160	8
7	3496	165	5
7	3603	170	5
7	3711	175	7
7	3819	180	8
7	3927	185	8
7	4033	190	10
7	4141	195	7
7	4250	200	8
7	4359	205	9
7	4466	210	10
7	4571	215	11
7	4680	220	12
7	4790	225	12
7	4896	230	13
7	5005	235	14
7	5113	240	16
7	5219	245	13
7	5327	250	14
7	5434	255	15
7	5542	260	15
7	5653	265	16
7	5758	270	18
7	5864	275	15
7	5973	280	17
7	6081	285	14
7	6188	290	14
7	6296	295	16
7	6404	300	17
7	6512	305	17
7	6618	310	19
7	6726	315	16
7	6835	320	17
7	6944	325	18
7	7051	330	19
7	7156	335	20
7	7265	340	21
7	7375	345	21
7	7481	350	22
7	7590	355	23
7	7698	360	25
7	7804	365	22
7	7912	370	23
7	8019	375	24
7	8127	380	24
7	8238	385	25
7	8343	390	27
7	8449	395	24
7	8558	400	26
7	8666	405	23
7	8773	410	23
7	8881	415	25
7	8989	420	26
7	9097	425	26
7	9203	430	28
7	9311	435	25
7	9420	440	26
7	9529	445	27
7	9636	450	28
7	9741	455	29
7	9850	460	30
7	9960	465	30
7	10066	470	31
7	10175	475	32
7	10283	480	34
7	10389	485	31
7	10497	490	32
7	10604	495	33
7	10712	500	33
7	10823	505	34
7	10928	510	36
7	11034	515	33
7	11143	520	35
7	11251	525	32
7	11358	530	32
7	11466	535	34
7	11574	540	35
7	11682	545	35
7	11788	550	37
7	11896	555	34
7	12005	560	35
7	12114	565	36
7	12221	570	37
7	12326	575	38
7	12435	580	39
7	12545	585	39
7	12651	590	40
7	12760	595	41
7	12868	600	43
7	12974	605	40
7	13082	610	41
7	13189	615	42
7	13297	620	42
7	13408	625	43
7	13513	630	45
7	13619	635	42
7	13728	640	44
7	13836	645	41
7	13943	650	41
7	14051	655	43
7	14159	660	44
7	14267	665	44
7	14373	670	46
7	14481	675	43
7	14590	680	44
7	14699	685	45
7	14806	690	46
7	14911	695	47
7	15020	700	48
7	15130	705	48
7	15236	710	49
7	15345	715	50
7	15453	720	52
7	15559	725	49
7	15667	730	50
7	15774	735	51
7	15882	740	51
7	15993	745	52
7	16098	750	54
7	16204	755	51
7	16313	760	53
7	16421	765	50
7	16528	770	50
7	16636	775	52
7	16744	780	53
7	16852	785	53
7	16958	790	55
7	17066	795	52
7	17175	800	53
7	17284	805	54
7	17391	810	55
7	17496	815	56
7	17605	820	57
7	17715	825	57
7	17821	830	58
7	17930	835	59
7	18038	840	61
7	18144	845	58
7	18252	850	59
7	18359	855	60
7	18467	860	60
7	18578	865	61
7	18683	870	63
7	18789	875	60
7	18898	880	62
7	19006	885	59
7	19113	890	59
7	19221	895	61
7	19329	900	62
7	19437	905	62
7	19543	910	64
7	19651	915	61
7	19760	920	62
7	19869	925	63
7	19976	930	64
7	20081	935	65
7	20190	940	66
7	20300	945	66
7	20406	950	67
7	20515	955	68
7	20623	960	70
7	20729	965	67
7	20837	970	68
7	20944	975	69
7	21052	980	69
7	21163	985	70
7	21268	990	72
7	21374	995	69
7	21483	1000	71
7	21591	1005	68
7	21698	1010	68
7	21806	1015	70
7	21914	1020	71
7	22022	1025	71
7	22128	1030	73
7	22236	1035	70
7	22345	1040	71
7	22454	1045	72
7	22561	1050	73
7	22666	1055	74
7	22775	1060	75
7	22885	1065	75
7	22991	1070	76
7	23100	1075	77
7	23208	1080	79
7	23314	1085	76
7	23422	1090	77
7	23529	1095	78
7	23637	1100	78
7	23748	1105	79
7	23853	1110	81
7	23959	1115	78
7	24068	1120	80
7	24176	1125	77
7	24283	1130	77
7	24391	1135	79
7	24499	1140	80
7	24607	1145	80
7	24713	1150	82
7	24821	1155	79
7	24930	1160	80
7	25039	1165	81
7	25146	1170	82
7	25251	1175	83
7	25360	1180	84
7	25470	1185	84
7	25576	1190	85
7	25685	1195	86
7	25793	1200	88
7	25899	1205	85
7	26007	1210	86
7	26114	1215	87
7	26222	1220	87
7	26333	1225	88
7	26438	1230	90
7	26544	1235	87
7	26653	1240	89
7	26761	1245	86
7	26868	1250	86
7	26976	1255	88
7	27084	1260	89
7	27192	1265	89
7	27298	1270	91
7	27406	1275	88
7	27515	1280	89
7	27624	1285	90
7	27731	1290	91
7	27836	1295	92
7	27945	1300	93
7	28055	1305	93
7	28161	1310	94
7	28270	1315	95
7	28378	1320	97
7	28484	1325	94
7	28592	1330	95
7	28699	1335	96
7	28807	1340	96
7	28918	1345	97
7	29023	1350	99
7	29129	1355	96
7	29238	1360	98
7	29346	1365	95
7	29453	1370	95
7	29561	1375	97
7	29669	1380	98
7	29777	1385	98
7	29883	1390	100
7	29991	1395	97
7	30100	1400	98
7	30209	1405	99
7	30316	1410	100
7	30421	1415	101
7	30530	1420	102
7	30640	1425	102
7	30746	1430	103
7	30855	1435	104
7	30963	1440	106
7	31069	1445	103
7	31177	1450	104
7	31284	1455	105
7	31392	1460	105
7	31503	1465	106
7	31608	1470	108
7	31714	1475	105
7	31823	1480	107
7	31931	1485	104
7	32038	1490	104
7	32146	1495	106
7	32254	1500	107
7	32362	1505	107
7	32468	1510	109
7	32576	1515	106
7	32685	1520	107
7	32794	1525	108
7	32901	1530	109
7	33006	1535	110
7	33115	1540	111
7	33225	1545	111
7	33331	1550	112
7	33440	1555	113
7	33548	1560	115
7	33654	1565	112
7	33762	1570	113
7	33869	1575	114
7	33977	1580	114
7	34088	1585	115
7	34193	1590	117
7	34299	1595	114
7	34408	1600	116
7	34516	1605	113
7	34623	1610	113
7	34731	1615	115
7	34839	1620	116
7	34947	1625	116
7	35053	1630	118
7	35161	1635	115
7	35270	1640	116
7	35379	1645	117
7	35486	1650	118
7	35591	1655	119
7	35700	1660	120
7	35810	1665	120
7	35916	1670	121
7	36025	1675	122
7	36133	1680	124
7	36239	1685	121
7	36347	1690	122
7	36454	1695	123
7	36562	1700	123
7	36673	1705	124
7	36778	1710	126
7	36884	1715	123
7	36993	1720	125
7	37101	1725	122
7	37208	1730	122
7	37316	1735	124
7	37424	1740	125
7	37532	1745	125
7	37638	1750	127
7	37746	1755	124
7	37855	1760	125
7	37964	1765	126
7	38071	1770	127
7	38176	1775	128
7	38285	1780	129
7	38395	1785	129
7	38501	1790	130
7	38610	1795	131
7	38718	1800	133
7	38824	1805	130
7	38932	1810	131
7	39039	1815	132
7	39147	1820	132
7	39258	1825	133
7	39363	1830	135
7	39469	1835	132
7	39578	1840	134
7	39686	1845	131
7	39793	1850	131
7	39901	1855	133
7	40009	1860	134
7	40117	1865	134
7	40223	1870	136
7	40331	1875	133
7	40440	1880	134
7	40549	1885	135
7	40656	1890	136
7	40761	1895	137
7	40870	1900	138
7	40980	1905	138
7	41086	1910	139
7	41195	1915	140
7	41303	1920	142
7	41409	1925	139
7	41517	1930	140
7	41624	1935	141
7	41732	1940	141
7	41843	1945	142
7	41948	1950	144
7	42054	1955	141
7	42163	1960	143
7	42271	1965	140
7	42378	1970	140
7	42486	1975	142
7	42594	1980	143
7	42702	1985	143
7	42808	1990	145
7	42916	1995	142
7	43025	2000	143
7	43134	2005	144
7	43241	2010	145
7	43346	2015	146
7	43455	2020	147
7	43565	2025	147
7	43671	2030	148
7	43780	2035	149
7	43888	2040	151
8	53	5	0
8	157	10	1
8	265	15	1
8	374	20	2
8	486	25	1
8	592	30	2
8	697	35	0
8	807	40	1
8	914	45	1
8	1021	50	2
8	1128	55	1
8	1236	60	2
8	1343	65	0
8	1450	70	1
8	1558	75	1
8	1668	80	2
8	1777	85	1
8	1883	90	2
8	1988	95	0
8	2096	100	1
8	2206	105	1
8	2312	110	2
8	2421	115	1
8	2529	120	2
8	2635	125	0
8	2743	130	1
8	2850	135	1
8	2958	140	2
8	3069	145	1
8	3174	150	2
8	3280	155	0
8	3389	160	1
8	3497	165	1
8	3604	170	2
8	3712	175	1
8	3820	180	2
8	3928	185	0
8	4034	190	1
8	4142	195	1
8	4251	200	2
8	4360	205	1
8	4467	210	2
8	4572	215	0
8	4681	220	1
8	4791	225	1
8	4897	230	2
8	5006	235	1
8	5114	240	2
8	5220	245	0
8	5328	250	1
8	5435	255	1
8	5543	260	2
8	5654	265	1
8	5759	270	2
8	5865	275	0
8	5974	280	1
8	6082	285	1
8	6189	290	2
8	6297	295	1
8	6405	300	2
8	6513	305	0
8	6619	310	1
8	6727	315	1
8	6836	320	2
8	6945	325	1
8	7052	330	2
8	7157	335	0
8	7266	340	1
8	7376	345	1
8	7482	350	2
8	7591	355	1
8	7699	360	2
8	7805	365	0
8	7913	370	1
8	8020	375	1
8	8128	380	2
8	8239	385	1
8	8344	390	2
8	8450	395	0
8	8559	400	1
8	8667	405	1
8	8774	410	2
8	8882	415	1
8	8990	420	2
8	9098	425	0
8	9204	430	1
8	9312	435	1
8	9421	440	2
8	9530	445	1
8	9637	450	2
8	9742	455	0
8	9851	460	1
8	9961	465	1
8	10067	470	2
8	10176	475	1
8	10284	480	2
8	10390	485	0
8	10498	490	1
8	10605	495	1
8	10713	500	2
8	10824	505	1
8	10929	510	2
8	11035	515	0
8	11144	520	1
8	11252	525	1
8	11359	530	2
8	11467	535	1
8	11575	540	2
8	11683	545	0
8	11789	550	1
8	11897	555	1
8	12006	560	2
8	12115	565	1
8	12222	570	2
8	12327	575	0
8	12436	580	1
8	12546	585	1
8	12652	590	2
8	12761	595	1
8	12869	600	2
8	12975	605	0
8	13083	610	1
8	13190	615	1
8	13298	620	2
8	13409	625	1
8	13514	630	2
8	13620	635	0
8	13729	640	1
8	13837	645	1
8	13944	650	2
8	14052	655	1
8	14160	660	2
8	14268	665	0
8	14374	670	1
8	14482	675	1
8	14591	680	2
8	14700	685	1
8	14807	690	2
8	14912	695	0
8	15021	700	1
8	15131	705	1
8	15237	710	2
8	15346	715	1
8	15454	720	2
8	15560	725	0
8	15668	730	1
8	15775	735	1
8	15883	740	2
8	15994	745	1
8	16099	750	2
8	16205	755	0
8	16314	760	1
8	16422	765	1
8	16529	770	2
8	16637	775	1
8	16745	780	2
8	16853	785	0
8	16959	790	1
8	17067	795	1
8	17176	800	2
8	17285	805	1
8	17392	810	2
8	17497	815	0
8	17606	820	1
8	17716	825	1
8	17822	830	2
8	17931	835	1
8	18039	840	2
8	18145	845	0
8	18253	850	1
8	18360	855	1
8	18468	860	2
8	18579	865	1
8	18684	870	2
8	18790	875	0
8	18899	880	1
8	19007	885	1
8	19114	890	2
8	19222	895	1
8	19330	900	2
8	19438	905	0
8	19544	910	1
8	19652	915	1
8	19761	920	2
8	19870	925	1
8	19977	930	2
8	20082	935	0
8	20191	940	1
8	20301	945	1
8	20407	950	2
8	20516	955	1
8	20624	960	2
8	20730	965	0
8	20838	970	1
8	20945	975	1
8	21053	980	2
8	21164	985	1
8	21269	990	2
8	21375	995	0
8	21484	1000	1
8	21592	1005	1
8	21699	1010	2
8	21807	1015	1
8	21915	1020	2
8	22023	1025	0
8	22129	1030	1
8	22237	1035	1
8	22346	1040	2
8	22455	1045	1
8	22562	1050	2
8	22667	1055	0
8	22776	1060	1
8	22886	1065	1
8	22992	1070	2
8	23101	1075	1
8	23209	1080	2
8	23315	1085	0
8	23423	1090	1
8	23530	1095	1
8	23638	1100	2
8	23749	1105	1
8	23854	1110	2
8	23960	1115	0
8	24069	1120	1
8	24177	1125	1
8	24284	1130	2
8	24392	1135	1
8	24500	1140	2
8	24608	1145	0
8	24714	1150	1
8	24822	1155	1
8	24931	1160	2
8	25040	1165	1
8	25147	1170	2
8	25252	1175	0
8	25361	1180	1
8	25471	1185	1
8	25577	1190	2
8	25686	1195	1
8	25794	1200	2
8	25900	1205	0
8	26008	1210	1
8	26115	1215	1
8	26223	1220	2
8	26334	1225	1
8	26439	1230	2
8	26545	1235	0
8	26654	1240	1
8	26762	1245	1
8	26869	1250	2
8	26977	1255	1
8	27085	1260	2
8	27193	1265	0
8	27299	1270	1
8	27407	1275	1
8	27516	1280	2
8	27625	1285	1
8	27732	1290	2
8	27837	1295	0
8	27946	1300	1
8	28056	1305	1
8	28162	1310	2
8	28271	1315	1
8	28379	1320	2
8	28485	1325	0
8	28593	1330	1
8	28700	1335	1
8	28808	1340	2
8	28919	1345	1
8	29024	1350	2
8	29130	1355	0
8	29239	1360	1
8	29347	1365	1
8	29454	1370	2
8	29562	1375	1
8	29670	1380	2
8	29778	1385	0
8	29884	1390	1
8	29992	1395	1
8	30101	1400	2
8	30210	1405	1
8	30317	1410	2
8	30422	1415	0
8	30531	1420	1
8	30641	1425	1
8	30747	1430	2
8	30856	1435	1
8	30964	1440	2
8	31070	1445	0
8	31178	1450	1
8	31285	1455	1
8	31393	1460	2
8	31504	1465	1
8	31609	1470	2
8	31715	1475	0
8	31824	1480	1
8	31932	1485	1
8	32039	1490	2
8	32147	1495	1
8	32255	1500	2
8	32363	1505	0
8	32469	1510	1
8	32577	1515	1
8	32686	1520	2
8	32795	1525	1
8	32902	1530	2
8	33007	1535	0
8	33116	1540	1
8	33226	1545	1
8	33332	1550	2
8	33441	1555	1
8	33549	1560	2
8	33655	1565	0
8	33763	1570	1
8	33870	1575	1
8	33978	1580	2
8	34089	1585	1
8	34194	1590	2
8	34300	1595	0
8	34409	1600	1
8	34517	1605	1
8	34624	1610	2
8	34732	1615	1
8	34840	1620	2
8	34948	1625	0
8	35054	1630	1
8	35162	1635	1
8	35271	1640	2
8	35380	1645	1
8	35487	1650	2
8	35592	1655	0
8	35701	1660	1
8	35811	1665	1
8	35917	1670	2
8	36026	1675	1
8	36134	1680	2
8	36240	1685	0
8	36348	1690	1
8	36455	1695	1
8	36563	1700	2
8	36674	1705	1
8	36779	1710	2
8	36885	1715	0
8	36994	1720	1
8	37102	1725	1
8	37209	1730	2
8	37317	1735	1
8	37425	1740	2
8	37533	1745	0
8	37639	1750	1
8	37747	1755	1
8	37856	1760	2
8	37965	1765	1
8	38072	1770	2
8	38177	1775	0
8	38286	1780	1
8	38396	1785	1
8	38502	1790	2
8	38611	1795	1
8	38719	1800	2
8	38825	1805	0
8	38933	1810	1
8	39040	1815	1
8	39148	1820	2
8	39259	1825	1
8	39364	1830	2
8	39470	1835	0
8	39579	1840	1
8	39687	1845	1
8	39794	1850	2
8	39902	1855	1
8	40010	1860	2
8	40118	1865	0
8	40224	1870	1
8	40332	1875	1
8	40441	1880	2
8	40550	1885	1
8	40657	1890	2
8	40762	1895	0
8	40871	1900	1
8	40981	1905	1
8	41087	1910	2
8	41196	1915	1
8	41304	1920	2
8	41410	1925	0
8	41518	1930	1
8	41625	1935	1
8	41733	1940	2
8	41844	1945	1
8	41949	1950	2
8	42055	1955	0
8	42164	1960	1
8	42272	1965	1
8	42379	1970	2
8	42487	1975	1
8	42595	1980	2
8	42703	1985	0
8	42809	1990	1
8	42917	1995	1
8	43026	2000	2
8	43135	2005	1
8	43242	2010	2
8	43347	2015	0
8	43456	2020	1
8	43566	2025	1
8	43672	2030	2
8	43781	2035	1
8	43889	2040	2
9	54	5	0
9	158	10	1
9	266	15	0
9	375	20	1
9	487	25	1
9	593	30	0
9	698	35	1
9	808	40	1
9	915	45	0
9	1022	50	1
9	1129	55	0
9	1237	60	1
9	1344	65	1
9	1451	70	0
9	1559	75	1
9	1669	80	1
9	1778	85	0
9	1884	90	1
9	1989	95	0
9	2097	100	1
9	2207	105	1
9	2313	110	0
9	2422	115	1
9	2530	120	1
9	2636	125	0
9	2744	130	1
9	2851	135	0
9	2959	140	1
9	3070	145	1
9	3175	150	0
9	3281	155	1
9	3390	160	1
9	3498	165	0
9	3605	170	1
9	3713	175	0
9	3821	180	1
9	3929	185	1
9	4035	190	0
9	4143	195	1
9	4252	200	1
9	4361	205	0
9	4468	210	1
9	4573	215	0
9	4682	220	1
9	4792	225	1
9	4898	230	0
9	5007	235	1
9	5115	240	1
9	5221	245	0
9	5329	250	1
9	5436	255	0
9	5544	260	1
9	5655	265	1
9	5760	270	0
9	5866	275	1
9	5975	280	1
9	6083	285	0
9	6190	290	1
9	6298	295	0
9	6406	300	1
9	6514	305	1
9	6620	310	0
9	6728	315	1
9	6837	320	1
9	6946	325	0
9	7053	330	1
9	7158	335	0
9	7267	340	1
9	7377	345	1
9	7483	350	0
9	7592	355	1
9	7700	360	1
9	7806	365	0
9	7914	370	1
9	8021	375	0
9	8129	380	1
9	8240	385	1
9	8345	390	0
9	8451	395	1
9	8560	400	1
9	8668	405	0
9	8775	410	1
9	8883	415	0
9	8991	420	1
9	9099	425	1
9	9205	430	0
9	9313	435	1
9	9422	440	1
9	9531	445	0
9	9638	450	1
9	9743	455	0
9	9852	460	1
9	9962	465	1
9	10068	470	0
9	10177	475	1
9	10285	480	1
9	10391	485	0
9	10499	490	1
9	10606	495	0
9	10714	500	1
9	10825	505	1
9	10930	510	0
9	11036	515	1
9	11145	520	1
9	11253	525	0
9	11360	530	1
9	11468	535	0
9	11576	540	1
9	11684	545	1
9	11790	550	0
9	11898	555	1
9	12007	560	1
9	12116	565	0
9	12223	570	1
9	12328	575	0
9	12437	580	1
9	12547	585	1
9	12653	590	0
9	12762	595	1
9	12870	600	1
9	12976	605	0
9	13084	610	1
9	13191	615	0
9	13299	620	1
9	13410	625	1
9	13515	630	0
9	13621	635	1
9	13730	640	1
9	13838	645	0
9	13945	650	1
9	14053	655	0
9	14161	660	1
9	14269	665	1
9	14375	670	0
9	14483	675	1
9	14592	680	1
9	14701	685	0
9	14808	690	1
9	14913	695	0
9	15022	700	1
9	15132	705	1
9	15238	710	0
9	15347	715	1
9	15455	720	1
9	15561	725	0
9	15669	730	1
9	15776	735	0
9	15884	740	1
9	15995	745	1
9	16100	750	0
9	16206	755	1
9	16315	760	1
9	16423	765	0
9	16530	770	1
9	16638	775	0
9	16746	780	1
9	16854	785	1
9	16960	790	0
9	17068	795	1
9	17177	800	1
9	17286	805	0
9	17393	810	1
9	17498	815	0
9	17607	820	1
9	17717	825	1
9	17823	830	0
9	17932	835	1
9	18040	840	1
9	18146	845	0
9	18254	850	1
9	18361	855	0
9	18469	860	1
9	18580	865	1
9	18685	870	0
9	18791	875	1
9	18900	880	1
9	19008	885	0
9	19115	890	1
9	19223	895	0
9	19331	900	1
9	19439	905	1
9	19545	910	0
9	19653	915	1
9	19762	920	1
9	19871	925	0
9	19978	930	1
9	20083	935	0
9	20192	940	1
9	20302	945	1
9	20408	950	0
9	20517	955	1
9	20625	960	1
9	20731	965	0
9	20839	970	1
9	20946	975	0
9	21054	980	1
9	21165	985	1
9	21270	990	0
9	21376	995	1
9	21485	1000	1
9	21593	1005	0
9	21700	1010	1
9	21808	1015	0
9	21916	1020	1
9	22024	1025	1
9	22130	1030	0
9	22238	1035	1
9	22347	1040	1
9	22456	1045	0
9	22563	1050	1
9	22668	1055	0
9	22777	1060	1
9	22887	1065	1
9	22993	1070	0
9	23102	1075	1
9	23210	1080	1
9	23316	1085	0
9	23424	1090	1
9	23531	1095	0
9	23639	1100	1
9	23750	1105	1
9	23855	1110	0
9	23961	1115	1
9	24070	1120	1
9	24178	1125	0
9	24285	1130	1
9	24393	1135	0
9	24501	1140	1
9	24609	1145	1
9	24715	1150	0
9	24823	1155	1
9	24932	1160	1
9	25041	1165	0
9	25148	1170	1
9	25253	1175	0
9	25362	1180	1
9	25472	1185	1
9	25578	1190	0
9	25687	1195	1
9	25795	1200	1
9	25901	1205	0
9	26009	1210	1
9	26116	1215	0
9	26224	1220	1
9	26335	1225	1
9	26440	1230	0
9	26546	1235	1
9	26655	1240	1
9	26763	1245	0
9	26870	1250	1
9	26978	1255	0
9	27086	1260	1
9	27194	1265	1
9	27300	1270	0
9	27408	1275	1
9	27517	1280	1
9	27626	1285	0
9	27733	1290	1
9	27838	1295	0
9	27947	1300	1
9	28057	1305	1
9	28163	1310	0
9	28272	1315	1
9	28380	1320	1
9	28486	1325	0
9	28594	1330	1
9	28701	1335	0
9	28809	1340	1
9	28920	1345	1
9	29025	1350	0
9	29131	1355	1
9	29240	1360	1
9	29348	1365	0
9	29455	1370	1
9	29563	1375	0
9	29671	1380	1
9	29779	1385	1
9	29885	1390	0
9	29993	1395	1
9	30102	1400	1
9	30211	1405	0
9	30318	1410	1
9	30423	1415	0
9	30532	1420	1
9	30642	1425	1
9	30748	1430	0
9	30857	1435	1
9	30965	1440	1
9	31071	1445	0
9	31179	1450	1
9	31286	1455	0
9	31394	1460	1
9	31505	1465	1
9	31610	1470	0
9	31716	1475	1
9	31825	1480	1
9	31933	1485	0
9	32040	1490	1
9	32148	1495	0
9	32256	1500	1
9	32364	1505	1
9	32470	1510	0
9	32578	1515	1
9	32687	1520	1
9	32796	1525	0
9	32903	1530	1
9	33008	1535	0
9	33117	1540	1
9	33227	1545	1
9	33333	1550	0
9	33442	1555	1
9	33550	1560	1
9	33656	1565	0
9	33764	1570	1
9	33871	1575	0
9	33979	1580	1
9	34090	1585	1
9	34195	1590	0
9	34301	1595	1
9	34410	1600	1
9	34518	1605	0
9	34625	1610	1
9	34733	1615	0
9	34841	1620	1
9	34949	1625	1
9	35055	1630	0
9	35163	1635	1
9	35272	1640	1
9	35381	1645	0
9	35488	1650	1
9	35593	1655	0
9	35702	1660	1
9	35812	1665	1
9	35918	1670	0
9	36027	1675	1
9	36135	1680	1
9	36241	1685	0
9	36349	1690	1
9	36456	1695	0
9	36564	1700	1
9	36675	1705	1
9	36780	1710	0
9	36886	1715	1
9	36995	1720	1
9	37103	1725	0
9	37210	1730	1
9	37318	1735	0
9	37426	1740	1
9	37534	1745	1
9	37640	1750	0
9	37748	1755	1
9	37857	1760	1
9	37966	1765	0
9	38073	1770	1
9	38178	1775	0
9	38287	1780	1
9	38397	1785	1
9	38503	1790	0
9	38612	1795	1
9	38720	1800	1
9	38826	1805	0
9	38934	1810	1
9	39041	1815	0
9	39149	1820	1
9	39260	1825	1
9	39365	1830	0
9	39471	1835	1
9	39580	1840	1
9	39688	1845	0
9	39795	1850	1
9	39903	1855	0
9	40011	1860	1
9	40119	1865	1
9	40225	1870	0
9	40333	1875	1
9	40442	1880	1
9	40551	1885	0
9	40658	1890	1
9	40763	1895	0
9	40872	1900	1
9	40982	1905	1
9	41088	1910	0
9	41197	1915	1
9	41305	1920	1
9	41411	1925	0
9	41519	1930	1
9	41626	1935	0
9	41734	1940	1
9	41845	1945	1
9	41950	1950	0
9	42056	1955	1
9	42165	1960	1
9	42273	1965	0
9	42380	1970	1
9	42488	1975	0
9	42596	1980	1
9	42704	1985	1
9	42810	1990	0
9	42918	1995	1
9	43027	2000	1
9	43136	2005	0
9	43243	2010	1
9	43348	2015	0
9	43457	2020	1
9	43567	2025	1
9	43673	2030	0
9	43782	2035	1
9	43890	2040	1
10	67	5	5
10	174	10	0
10	280	15	0
10	392	20	0
10	500	25	0
10	610	30	0
10	711	35	0
10	825	40	0
10	929	45	0
10	1038	50	0
10	1142	55	0
10	1255	60	0
10	1357	65	0
10	1467	70	0
10	1573	75	0
10	1686	80	0
10	1791	85	0
10	1901	90	0
10	2002	95	0
10	2114	100	0
10	2221	105	0
10	2329	110	0
10	2435	115	0
10	2548	120	0
10	2649	125	0
10	2760	130	0
10	2865	135	0
10	2976	140	0
10	3083	145	0
10	3192	150	0
10	3294	155	0
10	3407	160	0
10	3512	165	0
10	3621	170	0
10	3726	175	0
10	3839	180	0
10	3942	185	0
10	4051	190	0
10	4157	195	0
10	4269	200	0
10	4374	205	0
10	4485	210	0
10	4586	215	0
10	4699	220	0
10	4806	225	0
10	4914	230	0
10	5020	235	0
10	5133	240	0
10	5234	245	0
10	5345	250	0
10	5450	255	0
10	5561	260	0
10	5668	265	0
10	5777	270	0
10	5879	275	0
10	5992	280	0
10	6097	285	0
10	6206	290	0
10	6311	295	0
10	6424	300	0
10	6527	305	0
10	6636	310	0
10	6742	315	0
10	6854	320	0
10	6959	325	0
10	7070	330	0
10	7171	335	0
10	7284	340	0
10	7391	345	0
10	7499	350	0
10	7605	355	0
10	7718	360	0
10	7819	365	0
10	7930	370	0
10	8035	375	0
10	8146	380	0
10	8253	385	0
10	8362	390	0
10	8464	395	0
10	8577	400	0
10	8682	405	0
10	8791	410	0
10	8896	415	0
10	9009	420	0
10	9112	425	0
10	9221	430	0
10	9327	435	0
10	9439	440	0
10	9544	445	0
10	9655	450	0
10	9756	455	0
10	9869	460	0
10	9976	465	0
10	10084	470	0
10	10190	475	0
10	10303	480	0
10	10404	485	0
10	10515	490	0
10	10620	495	0
10	10731	500	0
10	10838	505	0
10	10947	510	0
10	11049	515	0
10	11162	520	0
10	11267	525	0
10	11376	530	0
10	11481	535	0
10	11594	540	0
10	11697	545	0
10	11806	550	0
10	11912	555	0
10	12024	560	0
10	12129	565	0
10	12240	570	0
10	12341	575	0
10	12454	580	0
10	12561	585	0
10	12669	590	0
10	12775	595	0
10	12888	600	0
10	12989	605	0
10	13100	610	0
10	13205	615	0
10	13316	620	0
10	13423	625	0
10	13532	630	0
10	13634	635	0
10	13747	640	0
10	13852	645	0
10	13961	650	0
10	14066	655	0
10	14179	660	0
10	14282	665	0
10	14391	670	0
10	14497	675	0
10	14609	680	0
10	14714	685	0
10	14825	690	0
10	14926	695	0
10	15039	700	0
10	15146	705	0
10	15254	710	0
10	15360	715	0
10	15473	720	0
10	15574	725	0
10	15685	730	0
10	15790	735	0
10	15901	740	0
10	16008	745	0
10	16117	750	0
10	16219	755	0
10	16332	760	0
10	16437	765	0
10	16546	770	0
10	16651	775	0
10	16764	780	0
10	16867	785	0
10	16976	790	0
10	17082	795	0
10	17194	800	0
10	17299	805	0
10	17410	810	0
10	17511	815	0
10	17624	820	0
10	17731	825	0
10	17839	830	0
10	17945	835	0
10	18058	840	0
10	18159	845	0
10	18270	850	0
10	18375	855	0
10	18486	860	0
10	18593	865	0
10	18702	870	0
10	18804	875	0
10	18917	880	0
10	19022	885	0
10	19131	890	0
10	19236	895	0
10	19349	900	0
10	19452	905	0
10	19561	910	0
10	19667	915	0
10	19779	920	0
10	19884	925	0
10	19995	930	0
10	20096	935	0
10	20209	940	0
10	20316	945	0
10	20424	950	0
10	20530	955	0
10	20643	960	0
10	20744	965	0
10	20855	970	0
10	20960	975	0
10	21071	980	0
10	21178	985	0
10	21287	990	0
10	21389	995	0
10	21502	1000	0
10	21607	1005	0
10	21716	1010	0
10	21821	1015	0
10	21934	1020	0
10	22037	1025	0
10	22146	1030	0
10	22252	1035	0
10	22364	1040	0
10	22469	1045	0
10	22580	1050	0
10	22681	1055	0
10	22794	1060	0
10	22901	1065	0
10	23009	1070	0
10	23115	1075	0
10	23228	1080	0
10	23329	1085	0
10	23440	1090	0
10	23545	1095	0
10	23656	1100	0
10	23763	1105	0
10	23872	1110	0
10	23974	1115	0
10	24087	1120	0
10	24192	1125	0
10	24301	1130	0
10	24406	1135	0
10	24519	1140	0
10	24622	1145	0
10	24731	1150	0
10	24837	1155	0
10	24949	1160	0
10	25054	1165	0
10	25165	1170	0
10	25266	1175	0
10	25379	1180	0
10	25486	1185	0
10	25594	1190	0
10	25700	1195	0
10	25813	1200	0
10	25914	1205	0
10	26025	1210	0
10	26130	1215	0
10	26241	1220	0
10	26348	1225	0
10	26457	1230	0
10	26559	1235	0
10	26672	1240	0
10	26777	1245	0
10	26886	1250	0
10	26991	1255	0
10	27104	1260	0
10	27207	1265	0
10	27316	1270	0
10	27422	1275	0
10	27534	1280	0
10	27639	1285	0
10	27750	1290	0
10	27851	1295	0
10	27964	1300	0
10	28071	1305	0
10	28179	1310	0
10	28285	1315	0
10	28398	1320	0
10	28499	1325	0
10	28610	1330	0
10	28715	1335	0
10	28826	1340	0
10	28933	1345	0
10	29042	1350	0
10	29144	1355	0
10	29257	1360	0
10	29362	1365	0
10	29471	1370	0
10	29576	1375	0
10	29689	1380	0
10	29792	1385	0
10	29901	1390	0
10	30007	1395	0
10	30119	1400	0
10	30224	1405	0
10	30335	1410	0
10	30436	1415	0
10	30549	1420	0
10	30656	1425	0
10	30764	1430	0
10	30870	1435	0
10	30983	1440	0
10	31084	1445	0
10	31195	1450	0
10	31300	1455	0
10	31411	1460	0
10	31518	1465	0
10	31627	1470	0
10	31729	1475	0
10	31842	1480	0
10	31947	1485	0
10	32056	1490	0
10	32161	1495	0
10	32274	1500	0
10	32377	1505	0
10	32486	1510	0
10	32592	1515	0
10	32704	1520	0
10	32809	1525	0
10	32920	1530	0
10	33021	1535	0
10	33134	1540	0
10	33241	1545	0
10	33349	1550	0
10	33455	1555	0
10	33568	1560	0
10	33669	1565	0
10	33780	1570	0
10	33885	1575	0
10	33996	1580	0
10	34103	1585	0
10	34212	1590	0
10	34314	1595	0
10	34427	1600	0
10	34532	1605	0
10	34641	1610	0
10	34746	1615	0
10	34859	1620	0
10	34962	1625	0
10	35071	1630	0
10	35177	1635	0
10	35289	1640	0
10	35394	1645	0
10	35505	1650	0
10	35606	1655	0
10	35719	1660	0
10	35826	1665	0
10	35934	1670	0
10	36040	1675	0
10	36153	1680	0
10	36254	1685	0
10	36365	1690	0
10	36470	1695	0
10	36581	1700	0
10	36688	1705	0
10	36797	1710	0
10	36899	1715	0
10	37012	1720	0
10	37117	1725	0
10	37226	1730	0
10	37331	1735	0
10	37444	1740	0
10	37547	1745	0
10	37656	1750	0
10	37762	1755	0
10	37874	1760	0
10	37979	1765	0
10	38090	1770	0
10	38191	1775	0
10	38304	1780	0
10	38411	1785	0
10	38519	1790	0
10	38625	1795	0
10	38738	1800	0
10	38839	1805	0
10	38950	1810	0
10	39055	1815	0
10	39166	1820	0
10	39273	1825	0
10	39382	1830	0
10	39484	1835	0
10	39597	1840	0
10	39702	1845	0
10	39811	1850	0
10	39916	1855	0
10	40029	1860	0
10	40132	1865	0
10	40241	1870	0
10	40347	1875	0
10	40459	1880	0
10	40564	1885	0
10	40675	1890	0
10	40776	1895	0
10	40889	1900	0
10	40996	1905	0
10	41104	1910	0
10	41210	1915	0
10	41323	1920	0
10	41424	1925	0
10	41535	1930	0
10	41640	1935	0
10	41751	1940	0
10	41858	1945	0
10	41967	1950	0
10	42069	1955	0
10	42182	1960	0
10	42287	1965	0
10	42396	1970	0
10	42501	1975	0
10	42614	1980	0
10	42717	1985	0
10	42826	1990	0
10	42932	1995	0
10	43044	2000	0
10	43149	2005	0
10	43260	2010	0
10	43361	2015	0
10	43474	2020	0
10	43581	2025	0
10	43689	2030	0
10	43795	2035	0
10	43908	2040	0
11	67	5	0
11	174	10	1
11	280	15	3
11	392	20	4
11	500	25	9
11	610	30	8
11	711	35	11
11	825	40	12
11	929	45	15
11	1038	50	16
11	1142	55	19
11	1255	60	19
11	1357	65	23
11	1467	70	23
11	1573	75	26
11	1686	80	27
11	1791	85	31
11	1901	90	31
11	2002	95	33
11	2114	100	34
11	2221	105	38
11	2329	110	38
11	2435	115	42
11	2548	120	42
11	2649	125	45
11	2760	130	46
11	2865	135	48
11	2976	140	49
11	3083	145	54
11	3192	150	53
11	3294	155	56
11	3407	160	57
11	3512	165	60
11	3621	170	61
11	3726	175	64
11	3839	180	64
11	3942	185	68
11	4051	190	68
11	4157	195	71
11	4269	200	72
11	4374	205	76
11	4485	210	76
11	4586	215	78
11	4699	220	79
11	4806	225	83
11	4914	230	83
11	5020	235	87
11	5133	240	87
11	5234	245	90
11	5345	250	91
11	5450	255	93
11	5561	260	94
11	5668	265	99
11	5777	270	98
11	5879	275	101
11	5992	280	102
11	6097	285	105
11	6206	290	106
11	6311	295	109
11	6424	300	109
11	6527	305	113
11	6636	310	113
11	6742	315	116
11	6854	320	117
11	6959	325	121
11	7070	330	121
11	7171	335	123
11	7284	340	124
11	7391	345	128
11	7499	350	128
11	7605	355	132
11	7718	360	132
11	7819	365	135
11	7930	370	136
11	8035	375	138
11	8146	380	139
11	8253	385	144
11	8362	390	143
11	8464	395	146
11	8577	400	147
11	8682	405	150
11	8791	410	151
11	8896	415	154
11	9009	420	154
11	9112	425	158
11	9221	430	158
11	9327	435	161
11	9439	440	162
11	9544	445	166
11	9655	450	166
11	9756	455	168
11	9869	460	169
11	9976	465	173
11	10084	470	173
11	10190	475	177
11	10303	480	177
11	10404	485	180
11	10515	490	181
11	10620	495	183
11	10731	500	184
11	10838	505	189
11	10947	510	188
11	11049	515	191
11	11162	520	192
11	11267	525	195
11	11376	530	196
11	11481	535	199
11	11594	540	199
11	11697	545	203
11	11806	550	203
11	11912	555	206
11	12024	560	207
11	12129	565	211
11	12240	570	211
11	12341	575	213
11	12454	580	214
11	12561	585	218
11	12669	590	218
11	12775	595	222
11	12888	600	222
11	12989	605	225
11	13100	610	226
11	13205	615	228
11	13316	620	229
11	13423	625	234
11	13532	630	233
11	13634	635	236
11	13747	640	237
11	13852	645	240
11	13961	650	241
11	14066	655	244
11	14179	660	244
11	14282	665	248
11	14391	670	248
11	14497	675	251
11	14609	680	252
11	14714	685	256
11	14825	690	256
11	14926	695	258
11	15039	700	259
11	15146	705	263
11	15254	710	263
11	15360	715	267
11	15473	720	267
11	15574	725	270
11	15685	730	271
11	15790	735	273
11	15901	740	274
11	16008	745	279
11	16117	750	278
11	16219	755	281
11	16332	760	282
11	16437	765	285
11	16546	770	286
11	16651	775	289
11	16764	780	289
11	16867	785	293
11	16976	790	293
11	17082	795	296
11	17194	800	297
11	17299	805	301
11	17410	810	301
11	17511	815	303
11	17624	820	304
11	17731	825	308
11	17839	830	308
11	17945	835	312
11	18058	840	312
11	18159	845	315
11	18270	850	316
11	18375	855	318
11	18486	860	319
11	18593	865	324
11	18702	870	323
11	18804	875	326
11	18917	880	327
11	19022	885	330
11	19131	890	331
11	19236	895	334
11	19349	900	334
11	19452	905	338
11	19561	910	338
11	19667	915	341
11	19779	920	342
11	19884	925	346
11	19995	930	346
11	20096	935	348
11	20209	940	349
11	20316	945	353
11	20424	950	353
11	20530	955	357
11	20643	960	357
11	20744	965	360
11	20855	970	361
11	20960	975	363
11	21071	980	364
11	21178	985	369
11	21287	990	368
11	21389	995	371
11	21502	1000	372
11	21607	1005	375
11	21716	1010	376
11	21821	1015	379
11	21934	1020	379
11	22037	1025	383
11	22146	1030	383
11	22252	1035	386
11	22364	1040	387
11	22469	1045	391
11	22580	1050	391
11	22681	1055	393
11	22794	1060	394
11	22901	1065	398
11	23009	1070	398
11	23115	1075	402
11	23228	1080	402
11	23329	1085	405
11	23440	1090	406
11	23545	1095	408
11	23656	1100	409
11	23763	1105	414
11	23872	1110	413
11	23974	1115	416
11	24087	1120	417
11	24192	1125	420
11	24301	1130	421
11	24406	1135	424
11	24519	1140	424
11	24622	1145	428
11	24731	1150	428
11	24837	1155	431
11	24949	1160	432
11	25054	1165	436
11	25165	1170	436
11	25266	1175	438
11	25379	1180	439
11	25486	1185	443
11	25594	1190	443
11	25700	1195	447
11	25813	1200	447
11	25914	1205	450
11	26025	1210	451
11	26130	1215	453
11	26241	1220	454
11	26348	1225	459
11	26457	1230	458
11	26559	1235	461
11	26672	1240	462
11	26777	1245	465
11	26886	1250	466
11	26991	1255	469
11	27104	1260	469
11	27207	1265	473
11	27316	1270	473
11	27422	1275	476
11	27534	1280	477
11	27639	1285	481
11	27750	1290	481
11	27851	1295	483
11	27964	1300	484
11	28071	1305	488
11	28179	1310	488
11	28285	1315	492
11	28398	1320	492
11	28499	1325	495
11	28610	1330	496
11	28715	1335	498
11	28826	1340	499
11	28933	1345	504
11	29042	1350	503
11	29144	1355	506
11	29257	1360	507
11	29362	1365	510
11	29471	1370	511
11	29576	1375	514
11	29689	1380	514
11	29792	1385	518
11	29901	1390	518
11	30007	1395	521
11	30119	1400	522
11	30224	1405	526
11	30335	1410	526
11	30436	1415	528
11	30549	1420	529
11	30656	1425	533
11	30764	1430	533
11	30870	1435	537
11	30983	1440	537
11	31084	1445	540
11	31195	1450	541
11	31300	1455	543
11	31411	1460	544
11	31518	1465	549
11	31627	1470	548
11	31729	1475	551
11	31842	1480	552
11	31947	1485	555
11	32056	1490	556
11	32161	1495	559
11	32274	1500	559
11	32377	1505	563
11	32486	1510	563
11	32592	1515	566
11	32704	1520	567
11	32809	1525	571
11	32920	1530	571
11	33021	1535	573
11	33134	1540	574
11	33241	1545	578
11	33349	1550	578
11	33455	1555	582
11	33568	1560	582
11	33669	1565	585
11	33780	1570	586
11	33885	1575	588
11	33996	1580	589
11	34103	1585	594
11	34212	1590	593
11	34314	1595	596
11	34427	1600	597
11	34532	1605	600
11	34641	1610	601
11	34746	1615	604
11	34859	1620	604
11	34962	1625	608
11	35071	1630	608
11	35177	1635	611
11	35289	1640	612
11	35394	1645	616
11	35505	1650	616
11	35606	1655	618
11	35719	1660	619
11	35826	1665	623
11	35934	1670	623
11	36040	1675	627
11	36153	1680	627
11	36254	1685	630
11	36365	1690	631
11	36470	1695	633
11	36581	1700	634
11	36688	1705	639
11	36797	1710	638
11	36899	1715	641
11	37012	1720	642
11	37117	1725	645
11	37226	1730	646
11	37331	1735	649
11	37444	1740	649
11	37547	1745	653
11	37656	1750	653
11	37762	1755	656
11	37874	1760	657
11	37979	1765	661
11	38090	1770	661
11	38191	1775	663
11	38304	1780	664
11	38411	1785	668
11	38519	1790	668
11	38625	1795	672
11	38738	1800	672
11	38839	1805	675
11	38950	1810	676
11	39055	1815	678
11	39166	1820	679
11	39273	1825	684
11	39382	1830	683
11	39484	1835	686
11	39597	1840	687
11	39702	1845	690
11	39811	1850	691
11	39916	1855	694
11	40029	1860	694
11	40132	1865	698
11	40241	1870	698
11	40347	1875	701
11	40459	1880	702
11	40564	1885	706
11	40675	1890	706
11	40776	1895	708
11	40889	1900	709
11	40996	1905	713
11	41104	1910	713
11	41210	1915	717
11	41323	1920	717
11	41424	1925	720
11	41535	1930	721
11	41640	1935	723
11	41751	1940	724
11	41858	1945	729
11	41967	1950	728
11	42069	1955	731
11	42182	1960	732
11	42287	1965	735
11	42396	1970	736
11	42501	1975	739
11	42614	1980	739
11	42717	1985	743
11	42826	1990	743
11	42932	1995	746
11	43044	2000	747
11	43149	2005	751
11	43260	2010	751
11	43361	2015	753
11	43474	2020	754
11	43581	2025	758
11	43689	2030	758
11	43795	2035	762
11	43908	2040	762
12	68	5	1
12	175	10	1
12	281	15	1
12	393	20	1
12	501	25	1
12	611	30	1
12	712	35	1
12	826	40	1
12	930	45	1
12	1039	50	1
12	1143	55	1
12	1256	60	1
12	1358	65	1
12	1468	70	1
12	1574	75	1
12	1687	80	1
12	1792	85	1
12	1902	90	1
12	2003	95	1
12	2115	100	1
12	2222	105	1
12	2330	110	1
12	2436	115	1
12	2549	120	1
12	2650	125	1
12	2761	130	1
12	2866	135	1
12	2977	140	1
12	3084	145	1
12	3193	150	1
12	3295	155	1
12	3408	160	1
12	3513	165	1
12	3622	170	1
12	3727	175	1
12	3840	180	1
12	3943	185	1
12	4052	190	1
12	4158	195	1
12	4270	200	1
12	4375	205	1
12	4486	210	1
12	4587	215	1
12	4700	220	1
12	4807	225	1
12	4915	230	1
12	5021	235	1
12	5134	240	1
12	5235	245	1
12	5346	250	1
12	5451	255	1
12	5562	260	1
12	5669	265	1
12	5778	270	1
12	5880	275	1
12	5993	280	1
12	6098	285	1
12	6207	290	1
12	6312	295	1
12	6425	300	1
12	6528	305	1
12	6637	310	1
12	6743	315	1
12	6855	320	1
12	6960	325	1
12	7071	330	1
12	7172	335	1
12	7285	340	1
12	7392	345	1
12	7500	350	1
12	7606	355	1
12	7719	360	1
12	7820	365	1
12	7931	370	1
12	8036	375	1
12	8147	380	1
12	8254	385	1
12	8363	390	1
12	8465	395	1
12	8578	400	1
12	8683	405	1
12	8792	410	1
12	8897	415	1
12	9010	420	1
12	9113	425	1
12	9222	430	1
12	9328	435	1
12	9440	440	1
12	9545	445	1
12	9656	450	1
12	9757	455	1
12	9870	460	1
12	9977	465	1
12	10085	470	1
12	10191	475	1
12	10304	480	1
12	10405	485	1
12	10516	490	1
12	10621	495	1
12	10732	500	1
12	10839	505	1
12	10948	510	1
12	11050	515	1
12	11163	520	1
12	11268	525	1
12	11377	530	1
12	11482	535	1
12	11595	540	1
12	11698	545	1
12	11807	550	1
12	11913	555	1
12	12025	560	1
12	12130	565	1
12	12241	570	1
12	12342	575	1
12	12455	580	1
12	12562	585	1
12	12670	590	1
12	12776	595	1
12	12889	600	1
12	12990	605	1
12	13101	610	1
12	13206	615	1
12	13317	620	1
12	13424	625	1
12	13533	630	1
12	13635	635	1
12	13748	640	1
12	13853	645	1
12	13962	650	1
12	14067	655	1
12	14180	660	1
12	14283	665	1
12	14392	670	1
12	14498	675	1
12	14610	680	1
12	14715	685	1
12	14826	690	1
12	14927	695	1
12	15040	700	1
12	15147	705	1
12	15255	710	1
12	15361	715	1
12	15474	720	1
12	15575	725	1
12	15686	730	1
12	15791	735	1
12	15902	740	1
12	16009	745	1
12	16118	750	1
12	16220	755	1
12	16333	760	1
12	16438	765	1
12	16547	770	1
12	16652	775	1
12	16765	780	1
12	16868	785	1
12	16977	790	1
12	17083	795	1
12	17195	800	1
12	17300	805	1
12	17411	810	1
12	17512	815	1
12	17625	820	1
12	17732	825	1
12	17840	830	1
12	17946	835	1
12	18059	840	1
12	18160	845	1
12	18271	850	1
12	18376	855	1
12	18487	860	1
12	18594	865	1
12	18703	870	1
12	18805	875	1
12	18918	880	1
12	19023	885	1
12	19132	890	1
12	19237	895	1
12	19350	900	1
12	19453	905	1
12	19562	910	1
12	19668	915	1
12	19780	920	1
12	19885	925	1
12	19996	930	1
12	20097	935	1
12	20210	940	1
12	20317	945	1
12	20425	950	1
12	20531	955	1
12	20644	960	1
12	20745	965	1
12	20856	970	1
12	20961	975	1
12	21072	980	1
12	21179	985	1
12	21288	990	1
12	21390	995	1
12	21503	1000	1
12	21608	1005	1
12	21717	1010	1
12	21822	1015	1
12	21935	1020	1
12	22038	1025	1
12	22147	1030	1
12	22253	1035	1
12	22365	1040	1
12	22470	1045	1
12	22581	1050	1
12	22682	1055	1
12	22795	1060	1
12	22902	1065	1
12	23010	1070	1
12	23116	1075	1
12	23229	1080	1
12	23330	1085	1
12	23441	1090	1
12	23546	1095	1
12	23657	1100	1
12	23764	1105	1
12	23873	1110	1
12	23975	1115	1
12	24088	1120	1
12	24193	1125	1
12	24302	1130	1
12	24407	1135	1
12	24520	1140	1
12	24623	1145	1
12	24732	1150	1
12	24838	1155	1
12	24950	1160	1
12	25055	1165	1
12	25166	1170	1
12	25267	1175	1
12	25380	1180	1
12	25487	1185	1
12	25595	1190	1
12	25701	1195	1
12	25814	1200	1
12	25915	1205	1
12	26026	1210	1
12	26131	1215	1
12	26242	1220	1
12	26349	1225	1
12	26458	1230	1
12	26560	1235	1
12	26673	1240	1
12	26778	1245	1
12	26887	1250	1
12	26992	1255	1
12	27105	1260	1
12	27208	1265	1
12	27317	1270	1
12	27423	1275	1
12	27535	1280	1
12	27640	1285	1
12	27751	1290	1
12	27852	1295	1
12	27965	1300	1
12	28072	1305	1
12	28180	1310	1
12	28286	1315	1
12	28399	1320	1
12	28500	1325	1
12	28611	1330	1
12	28716	1335	1
12	28827	1340	1
12	28934	1345	1
12	29043	1350	1
12	29145	1355	1
12	29258	1360	1
12	29363	1365	1
12	29472	1370	1
12	29577	1375	1
12	29690	1380	1
12	29793	1385	1
12	29902	1390	1
12	30008	1395	1
12	30120	1400	1
12	30225	1405	1
12	30336	1410	1
12	30437	1415	1
12	30550	1420	1
12	30657	1425	1
12	30765	1430	1
12	30871	1435	1
12	30984	1440	1
12	31085	1445	1
12	31196	1450	1
12	31301	1455	1
[...]
20	40582	1885	3
20	40583	1885	1
20	40584	1885	5
20	40585	1885	4
20	40586	1885	3
20	40587	1885	2
20	40588	1885	1
20	40589	1885	5
20	40590	1885	3
20	40591	1885	1
20	40592	1885	573
20	40593	1885	572
20	40594	1885	571
20	40595	1885	570
20	40596	1885	269
20	40685	1890	5
20	40686	1890	4
20	40687	1890	3
20	40688	1890	2
20	40689	1890	1
20	40690	1890	3
20	40691	1890	2
20	40692	1890	10
20	40693	1890	6
20	40694	1890	2
20	40695	1890	5
20	40696	1890	4
20	40697	1890	3
20	40698	1890	2
20	40699	1890	1
20	40700	1890	6
20	40701	1890	0
20	40702	1890	4
20	40703	1890	2
20	40704	1890	574
20	40705	1890	573
20	40706	1890	572
20	40707	1890	571
20	40708	1890	272
20	40709	1890	270
20	40784	1895	5
20	40785	1895	4
20	40786	1895	3
20	40787	1895	2
20	40788	1895	1
20	40789	1895	5
20	40790	1895	2
20	40791	1895	9
20	40792	1895	7
20	40793	1895	5
20	40794	1895	3
20	40795	1895	1
20	40796	1895	5
20	40797	1895	4
20	40798	1895	3
20	40799	1895	2
20	40800	1895	1
20	40801	1895	5
20	40802	1895	3
20	40803	1895	1
20	40804	1895	575
20	40805	1895	574
20	40806	1895	573
20	40807	1895	572
20	40808	1895	273
20	40899	1900	5
20	40900	1900	4
20	40901	1900	3
20	40902	1900	2
20	40903	1900	1
20	40904	1900	4
20	40905	1900	1
20	40906	1900	4
20	40907	1900	8
20	40908	1900	4
20	40909	1900	5
20	40910	1900	4
20	40911	1900	3
20	40912	1900	2
20	40913	1900	1
20	40914	1900	4
20	40915	1900	4
20	40916	1900	2
20	40917	1900	576
20	40918	1900	575
20	40919	1900	574
20	40920	1900	573
20	40921	1900	276
20	40922	1900	274
20	40923	1900	272
20	41005	1905	5
20	41006	1905	4
20	41007	1905	3
20	41008	1905	2
20	41009	1905	1
20	41010	1905	3
20	41011	1905	1
20	41012	1905	9
20	41013	1905	7
20	41014	1905	5
20	41015	1905	3
20	41016	1905	1
20	41017	1905	5
20	41018	1905	4
20	41019	1905	3
20	41020	1905	2
20	41021	1905	1
20	41022	1905	5
20	41023	1905	3
20	41024	1905	1
20	41025	1905	577
20	41026	1905	576
20	41027	1905	575
20	41028	1905	574
20	41029	1905	275
20	41113	1910	5
20	41114	1910	4
20	41115	1910	3
20	41116	1910	2
20	41117	1910	1
20	41118	1910	5
20	41119	1910	2
20	41120	1910	10
20	41121	1910	6
20	41122	1910	2
20	41123	1910	5
20	41124	1910	4
20	41125	1910	3
20	41126	1910	2
20	41127	1910	1
20	41128	1910	8
20	41129	1910	2
20	41130	1910	4
20	41131	1910	2
20	41132	1910	578
20	41133	1910	577
20	41134	1910	576
20	41135	1910	575
20	41136	1910	278
20	41137	1910	276
20	41218	1915	5
20	41219	1915	4
20	41220	1915	3
20	41221	1915	2
20	41222	1915	1
20	41223	1915	4
20	41224	1915	1
20	41225	1915	3
20	41226	1915	9
20	41227	1915	7
20	41228	1915	5
20	41229	1915	3
20	41230	1915	1
20	41231	1915	5
20	41232	1915	4
20	41233	1915	3
20	41234	1915	2
20	41235	1915	1
20	41236	1915	5
20	41237	1915	3
20	41238	1915	1
20	41239	1915	579
20	41240	1915	578
20	41241	1915	577
20	41242	1915	576
20	41333	1920	5
20	41334	1920	4
20	41335	1920	3
20	41336	1920	2
20	41337	1920	1
20	41338	1920	3
20	41339	1920	0
20	41340	1920	284
20	41341	1920	282
20	41342	1920	280
20	41343	1920	278
20	41344	1920	276
20	41345	1920	274
20	41346	1920	8
20	41347	1920	4
20	41348	1920	5
20	41349	1920	4
20	41350	1920	3
20	41351	1920	2
20	41352	1920	1
20	41353	1920	6
20	41354	1920	0
20	41355	1920	4
20	41356	1920	2
20	41357	1920	580
20	41432	1925	5
20	41433	1925	4
20	41434	1925	3
20	41435	1925	2
20	41436	1925	1
20	41437	1925	5
20	41438	1925	2
20	41439	1925	9
20	41440	1925	7
20	41441	1925	5
20	41442	1925	3
20	41443	1925	1
20	41444	1925	5
20	41445	1925	4
20	41446	1925	3
20	41447	1925	2
20	41448	1925	1
20	41449	1925	5
20	41450	1925	3
20	41451	1925	1
20	41452	1925	584
20	41453	1925	583
20	41454	1925	582
20	41455	1925	581
20	41456	1925	277
20	41545	1930	5
20	41546	1930	4
20	41547	1930	3
20	41548	1930	2
20	41549	1930	1
20	41550	1930	4
20	41551	1930	1
20	41552	1930	2
20	41553	1930	10
20	41554	1930	6
20	41555	1930	2
20	41556	1930	5
20	41557	1930	4
20	41558	1930	3
20	41559	1930	2
20	41560	1930	1
20	41561	1930	4
20	41562	1930	4
20	41563	1930	2
20	41564	1930	585
20	41565	1930	584
20	41566	1930	583
20	41567	1930	582
20	41568	1930	280
20	41569	1930	278
20	41648	1935	5
20	41649	1935	4
20	41650	1935	3
20	41651	1935	2
20	41652	1935	1
20	41653	1935	3
20	41654	1935	9
20	41655	1935	7
20	41656	1935	5
20	41657	1935	3
20	41658	1935	1
20	41659	1935	5
20	41660	1935	4
20	41661	1935	3
20	41662	1935	2
20	41663	1935	1
20	41664	1935	5
20	41665	1935	3
20	41666	1935	1
20	41667	1935	586
20	41668	1935	585
20	41669	1935	584
20	41670	1935	583
20	41671	1935	281
20	41672	1935	279
20	41761	1940	5
20	41762	1940	4
20	41763	1940	3
20	41764	1940	2
20	41765	1940	1
20	41766	1940	5
20	41767	1940	2
20	41768	1940	4
20	41769	1940	8
20	41770	1940	4
20	41771	1940	5
20	41772	1940	4
20	41773	1940	3
20	41774	1940	2
20	41775	1940	1
20	41776	1940	8
20	41777	1940	2
20	41778	1940	4
20	41779	1940	2
20	41780	1940	587
20	41781	1940	586
20	41782	1940	585
20	41783	1940	584
20	41784	1940	282
20	41785	1940	280
20	41866	1945	5
20	41867	1945	4
20	41868	1945	3
20	41869	1945	2
20	41870	1945	1
20	41871	1945	4
20	41872	1945	1
20	41873	1945	1
20	41874	1945	9
20	41875	1945	7
20	41876	1945	5
20	41877	1945	3
20	41878	1945	1
20	41879	1945	5
20	41880	1945	4
20	41881	1945	3
20	41882	1945	2
20	41883	1945	1
20	41884	1945	5
20	41885	1945	3
20	41886	1945	1
20	41887	1945	588
20	41888	1945	587
20	41889	1945	586
20	41890	1945	585
20	41976	1950	5
20	41977	1950	4
20	41978	1950	3
20	41979	1950	2
20	41980	1950	1
20	41981	1950	3
20	41982	1950	288
20	41983	1950	286
20	41984	1950	284
20	41985	1950	282
20	41986	1950	280
20	41987	1950	278
20	41988	1950	10
20	41989	1950	6
20	41990	1950	2
20	41991	1950	5
20	41992	1950	4
20	41993	1950	3
20	41994	1950	2
20	41995	1950	1
20	41996	1950	6
20	41997	1950	0
20	41998	1950	4
20	41999	1950	2
20	42000	1950	589
20	42077	1955	5
20	42078	1955	4
20	42079	1955	3
20	42080	1955	2
20	42081	1955	1
20	42082	1955	5
20	42083	1955	2
20	42084	1955	3
20	42085	1955	9
20	42086	1955	7
20	42087	1955	5
20	42088	1955	3
20	42089	1955	1
20	42090	1955	5
20	42091	1955	4
20	42092	1955	3
20	42093	1955	2
20	42094	1955	1
20	42095	1955	5
20	42096	1955	3
20	42097	1955	1
20	42098	1955	593
20	42099	1955	592
20	42100	1955	591
20	42101	1955	590
20	42192	1960	5
20	42193	1960	4
20	42194	1960	3
20	42195	1960	2
20	42196	1960	1
20	42197	1960	4
20	42198	1960	1
20	42199	1960	0
20	42200	1960	286
20	42201	1960	284
20	42202	1960	282
20	42203	1960	280
20	42204	1960	278
20	42205	1960	276
20	42206	1960	8
20	42207	1960	4
20	42208	1960	5
20	42209	1960	4
20	42210	1960	3
20	42211	1960	2
20	42212	1960	1
20	42213	1960	4
20	42214	1960	4
20	42215	1960	2
20	42216	1960	594
20	42295	1965	5
20	42296	1965	4
20	42297	1965	3
20	42298	1965	2
20	42299	1965	1
20	42300	1965	3
20	42301	1965	9
20	42302	1965	7
20	42303	1965	5
20	42304	1965	3
20	42305	1965	1
20	42306	1965	5
20	42307	1965	4
20	42308	1965	3
20	42309	1965	2
20	42310	1965	1
20	42311	1965	5
20	42312	1965	3
20	42313	1965	1
20	42314	1965	598
20	42315	1965	597
20	42316	1965	596
20	42317	1965	595
20	42318	1965	279
20	42319	1965	277
20	42406	1970	5
20	42407	1970	4
20	42408	1970	3
20	42409	1970	2
20	42410	1970	1
20	42411	1970	5
20	42412	1970	2
20	42413	1970	2
20	42414	1970	10
20	42415	1970	6
20	42416	1970	2
20	42417	1970	5
20	42418	1970	4
20	42419	1970	3
20	42420	1970	2
20	42421	1970	1
20	42422	1970	8
20	42423	1970	2
20	42424	1970	4
20	42425	1970	2
20	42426	1970	599
20	42427	1970	598
20	42428	1970	597
20	42429	1970	596
20	42430	1970	280
20	42509	1975	5
20	42510	1975	4
20	42511	1975	3
20	42512	1975	2
20	42513	1975	1
20	42514	1975	4
20	42515	1975	1
20	42516	1975	9
20	42517	1975	7
20	42518	1975	5
20	42519	1975	3
20	42520	1975	1
20	42521	1975	5
20	42522	1975	4
20	42523	1975	3
20	42524	1975	2
20	42525	1975	1
20	42526	1975	5
20	42527	1975	3
20	42528	1975	1
20	42529	1975	600
20	42530	1975	599
20	42531	1975	598
20	42532	1975	597
20	42533	1975	283
20	42624	1980	5
20	42625	1980	4
20	42626	1980	3
20	42627	1980	2
20	42628	1980	1
20	42629	1980	3
20	42630	1980	4
20	42631	1980	8
20	42632	1980	4
20	42633	1980	5
20	42634	1980	4
20	42635	1980	3
20	42636	1980	2
20	42637	1980	1
20	42638	1980	6
20	42639	1980	0
20	42640	1980	4
20	42641	1980	2
20	42642	1980	601
20	42643	1980	600
20	42644	1980	599
20	42645	1980	598
20	42646	1980	286
20	42647	1980	284
20	42648	1980	282
20	42725	1985	5
20	42726	1985	4
20	42727	1985	3
20	42728	1985	2
20	42729	1985	1
20	42730	1985	5
20	42731	1985	2
20	42732	1985	1
20	42733	1985	9
20	42734	1985	7
20	42735	1985	5
20	42736	1985	3
20	42737	1985	1
20	42738	1985	5
20	42739	1985	4
20	42740	1985	3
20	42741	1985	2
20	42742	1985	1
20	42743	1985	5
20	42744	1985	3
20	42745	1985	1
20	42746	1985	602
20	42747	1985	601
20	42748	1985	600
20	42749	1985	599
20	42835	1990	5
20	42836	1990	4
20	42837	1990	3
20	42838	1990	2
20	42839	1990	1
20	42840	1990	4
20	42841	1990	1
20	42842	1990	290
20	42843	1990	288
20	42844	1990	286
20	42845	1990	284
20	42846	1990	282
20	42847	1990	280
20	42848	1990	10
20	42849	1990	6
20	42850	1990	2
20	42851	1990	5
20	42852	1990	4
20	42853	1990	3
20	42854	1990	2
20	42855	1990	1
20	42856	1990	4
20	42857	1990	4
20	42858	1990	2
20	42859	1990	603
20	42941	1995	5
20	42942	1995	4
20	42943	1995	3
20	42944	1995	2
20	42945	1995	1
20	42946	1995	3
20	42947	1995	3
20	42948	1995	9
20	42949	1995	7
20	42950	1995	5
20	42951	1995	3
20	42952	1995	1
20	42953	1995	5
20	42954	1995	4
20	42955	1995	3
20	42956	1995	2
20	42957	1995	1
20	42958	1995	5
20	42959	1995	3
20	42960	1995	1
20	42961	1995	607
20	42962	1995	606
20	42963	1995	605
20	42964	1995	604
20	42965	1995	283
20	43054	2000	5
20	43055	2000	4
20	43056	2000	3
20	43057	2000	2
20	43058	2000	1
20	43059	2000	5
20	43060	2000	2
20	43061	2000	0
20	43062	2000	8
20	43063	2000	4
20	43064	2000	5
20	43065	2000	4
20	43066	2000	3
20	43067	2000	2
20	43068	2000	1
20	43069	2000	8
20	43070	2000	2
20	43071	2000	4
20	43072	2000	2
20	43073	2000	608
20	43074	2000	607
20	43075	2000	606
20	43076	2000	605
20	43077	2000	286
20	43078	2000	284
20	43157	2005	5
20	43158	2005	4
20	43159	2005	3
20	43160	2005	2
20	43161	2005	1
20	43162	2005	4
20	43163	2005	1
20	43164	2005	9
20	43165	2005	7
20	43166	2005	5
20	43167	2005	3
20	43168	2005	1
20	43169	2005	5
20	43170	2005	4
20	43171	2005	3
20	43172	2005	2
20	43173	2005	1
20	43174	2005	5
20	43175	2005	3
20	43176	2005	1
20	43177	2005	609
20	43178	2005	608
20	43179	2005	607
20	43180	2005	606
20	43181	2005	287
20	43270	2010	5
20	43271	2010	4
20	43272	2010	3
20	43273	2010	2
20	43274	2010	1
20	43275	2010	3
20	43276	2010	2
20	43277	2010	10
20	43278	2010	6
20	43279	2010	2
20	43280	2010	5
20	43281	2010	4
20	43282	2010	3
20	43283	2010	2
20	43284	2010	1
20	43285	2010	6
20	43286	2010	0
20	43287	2010	4
20	43288	2010	2
20	43289	2010	610
20	43290	2010	609
20	43291	2010	608
20	43292	2010	607
20	43293	2010	290
20	43294	2010	288
20	43369	2015	5
20	43370	2015	4
20	43371	2015	3
20	43372	2015	2
20	43373	2015	1
20	43374	2015	5
20	43375	2015	2
20	43376	2015	9
20	43377	2015	7
20	43378	2015	5
20	43379	2015	3
20	43380	2015	1
20	43381	2015	5
20	43382	2015	4
20	43383	2015	3
20	43384	2015	2
20	43385	2015	1
20	43386	2015	5
20	43387	2015	3
20	43388	2015	1
20	43389	2015	611
20	43390	2015	610
20	43391	2015	609
20	43392	2015	608
20	43393	2015	291
20	43484	2020	5
20	43485	2020	4
20	43486	2020	3
20	43487	2020	2
20	43488	2020	1
20	43489	2020	4
20	43490	2020	1
20	43491	2020	4
20	43492	2020	8
20	43493	2020	4
20	43494	2020	5
20	43495	2020	4
20	43496	2020	3
20	43497	2020	2
20	43498	2020	1
20	43499	2020	4
20	43500	2020	4
20	43501	2020	2
20	43502	2020	612
20	43503	2020	611
20	43504	2020	610
20	43505	2020	609
20	43506	2020	294
20	43507	2020	292
20	43508	2020	290
20	43590	2025	5
20	43591	2025	4
20	43592	2025	3
20	43593	2025	2
20	43594	2025	1
20	43595	2025	3
20	43596	2025	1
20	43597	2025	9
20	43598	2025	7
20	43599	2025	5
20	43600	2025	3
20	43601	2025	1
20	43602	2025	5
20	43603	2025	4
20	43604	2025	3
20	43605	2025	2
20	43606	2025	1
20	43607	2025	5
20	43608	2025	3
20	43609	2025	1
20	43610	2025	613
20	43611	2025	612
20	43612	2025	611
20	43613	2025	610
20	43614	2025	293
20	43698	2030	5
20	43699	2030	4
20	43700	2030	3
20	43701	2030	2
20	43702	2030	1
20	43703	2030	5
20	43704	2030	2
20	43705	2030	10
20	43706	2030	6
20	43707	2030	2
20	43708	2030	5
20	43709	2030	4
20	43710	2030	3
20	43711	2030	2
20	43712	2030	1
20	43713	2030	8
20	43714	2030	2
20	43715	2030	4
20	43716	2030	2
20	43717	2030	614
20	43718	2030	613
20	43719	2030	612
20	43720	2030	611
20	43721	2030	296
20	43722	2030	294
20	43803	2035	5
20	43804	2035	4
20	43805	2035	3
20	43806	2035	2
20	43807	2035	1
20	43808	2035	4
20	43809	2035	1
20	43810	2035	3
20	43811	2035	9
20	43812	2035	7
20	43813	2035	5
20	43814	2035	3
20	43815	2035	1
20	43816	2035	5
20	43817	2035	4
20	43818	2035	3
20	43819	2035	2
20	43820	2035	1
20	43821	2035	5
20	43822	2035	3
20	43823	2035	1
20	43824	2035	615
20	43825	2035	614
20	43826	2035	613
20	43827	2035	612
20	43918	2040	5
20	43919	2040	4
20	43920	2040	3
20	43921	2040	2
20	43922	2040	1
20	43923	2040	3
20	43924	2040	0
20	43925	2040	302
20	43926	2040	300
20	43927	2040	298
20	43928	2040	296
20	43929	2040	294
20	43930	2040	292
20	43931	2040	8
20	43932	2040	4
20	43933	2040	5
20	43934	2040	4
20	43935	2040	3
20	43936	2040	2
20	43937	2040	1
20	43938	2040	6
20	43939	2040	0
20	43940	2040	4
20	43941	2040	2
20	43942	2040	616
21	177	10	0
21	395	20	0
21	503	25	0
21	714	35	0
21	828	40	0
21	1041	50	0
21	1258	60	0
21	1360	65	0
21	1576	75	0
21	1689	80	0
21	1904	90	0
21	2117	100	0
21	2224	105	0
21	2438	115	0
21	2551	120	0
21	2763	130	0
21	2979	140	0
21	3086	145	0
21	3297	155	0
21	3410	160	0
21	3624	170	0
21	3842	180	0
21	3945	185	0
21	4160	195	0
21	4272	200	0
21	4488	210	0
21	4702	220	0
21	4809	225	0
21	5023	235	0
21	5136	240	0
21	5348	250	0
21	5564	260	0
21	5671	265	0
21	5882	275	0
21	5995	280	0
21	6209	290	0
21	6427	300	0
21	6530	305	0
21	6745	315	0
21	6857	320	0
21	7073	330	0
21	7287	340	0
21	7394	345	0
21	7608	355	0
21	7721	360	0
21	7933	370	0
21	8149	380	0
21	8256	385	0
21	8467	395	0
21	8580	400	0
21	8794	410	0
21	9012	420	0
21	9115	425	0
21	9330	435	0
21	9442	440	0
21	9658	450	0
21	9872	460	0
21	9979	465	0
21	10193	475	0
21	10306	480	0
21	10518	490	0
21	10734	500	0
21	10841	505	0
21	11052	515	0
21	11165	520	0
21	11379	530	0
21	11597	540	0
21	11700	545	0
21	11915	555	0
21	12027	560	0
21	12243	570	0
21	12457	580	0
21	12564	585	0
21	12778	595	0
21	12891	600	0
21	13103	610	0
21	13319	620	0
21	13426	625	0
21	13637	635	0
21	13750	640	0
21	13964	650	0
21	14182	660	0
21	14285	665	0
21	14500	675	0
21	14612	680	0
21	14828	690	0
21	15042	700	0
21	15149	705	0
21	15363	715	0
21	15476	720	0
21	15688	730	0
21	15904	740	0
21	16011	745	0
21	16222	755	0
21	16335	760	0
21	16549	770	0
21	16767	780	0
21	16870	785	0
21	17085	795	0
21	17197	800	0
21	17413	810	0
21	17627	820	0
21	17734	825	0
21	17948	835	0
21	18061	840	0
21	18273	850	0
21	18489	860	0
21	18596	865	0
21	18807	875	0
21	18920	880	0
21	19134	890	0
21	19352	900	0
21	19455	905	0
21	19670	915	0
21	19782	920	0
21	19998	930	0
21	20212	940	0
21	20319	945	0
21	20533	955	0
21	20646	960	0
21	20858	970	0
21	21074	980	0
21	21181	985	0
21	21392	995	0
21	21505	1000	0
21	21719	1010	0
21	21937	1020	0
21	22040	1025	0
21	22255	1035	0
21	22367	1040	0
21	22583	1050	0
21	22797	1060	0
21	22904	1065	0
21	23118	1075	0
21	23231	1080	0
21	23443	1090	0
21	23659	1100	0
21	23766	1105	0
21	23977	1115	0
21	24090	1120	0
21	24304	1130	0
21	24522	1140	0
21	24625	1145	0
21	24840	1155	0
21	24952	1160	0
21	25168	1170	0
21	25382	1180	0
21	25489	1185	0
21	25703	1195	0
21	25816	1200	0
21	26028	1210	0
21	26244	1220	0
21	26351	1225	0
21	26562	1235	0
21	26675	1240	0
21	26889	1250	0
21	27107	1260	0
21	27210	1265	0
21	27425	1275	0
21	27537	1280	0
21	27753	1290	0
21	27967	1300	0
21	28074	1305	0
21	28288	1315	0
21	28401	1320	0
21	28613	1330	0
21	28829	1340	0
21	28936	1345	0
21	29147	1355	0
21	29260	1360	0
21	29474	1370	0
21	29692	1380	0
21	29795	1385	0
21	30010	1395	0
21	30122	1400	0
21	30338	1410	0
21	30552	1420	0
21	30659	1425	0
21	30873	1435	0
21	30986	1440	0
21	31198	1450	0
21	31414	1460	0
21	31521	1465	0
21	31732	1475	0
21	31845	1480	0
21	32059	1490	0
21	32277	1500	0
21	32380	1505	0
21	32595	1515	0
21	32707	1520	0
21	32923	1530	0
21	33137	1540	0
21	33244	1545	0
21	33458	1555	0
21	33571	1560	0
21	33783	1570	0
21	33999	1580	0
21	34106	1585	0
21	34317	1595	0
21	34430	1600	0
21	34644	1610	0
21	34862	1620	0
21	34965	1625	0
21	35180	1635	0
21	35292	1640	0
21	35508	1650	0
21	35722	1660	0
21	35829	1665	0
21	36043	1675	0
21	36156	1680	0
21	36368	1690	0
21	36584	1700	0
21	36691	1705	0
21	36902	1715	0
21	37015	1720	0
21	37229	1730	0
21	37447	1740	0
21	37550	1745	0
21	37765	1755	0
21	37877	1760	0
21	38093	1770	0
21	38307	1780	0
21	38414	1785	0
21	38628	1795	0
21	38741	1800	0
21	38953	1810	0
21	39169	1820	0
21	39276	1825	0
21	39487	1835	0
21	39600	1840	0
21	39814	1850	0
21	40032	1860	0
21	40135	1865	0
21	40350	1875	0
21	40462	1880	0
21	40678	1890	0
21	40892	1900	0
21	40999	1905	0
21	41213	1915	0
21	41326	1920	0
21	41538	1930	0
21	41754	1940	0
21	41861	1945	0
21	42072	1955	0
21	42185	1960	0
21	42399	1970	0
21	42617	1980	0
21	42720	1985	0
21	42935	1995	0
21	43047	2000	0
21	43263	2010	0
21	43477	2020	0
21	43584	2025	0
21	43798	2035	0
21	43911	2040	0
22	184	10	0
22	397	20	0
22	615	30	0
22	831	40	0
22	1044	50	0
22	1261	60	0
22	1472	70	0
22	1691	80	0
22	1908	90	0
22	2121	100	0
22	2334	110	0
22	2555	120	0
22	2766	130	0
22	2982	140	0
22	3198	150	0
22	3414	160	0
22	3627	170	0
22	3845	180	0
22	4057	190	0
22	4275	200	0
22	4491	210	0
22	4705	220	0
22	4919	230	0
22	5140	240	0
22	5351	250	0
22	5567	260	0
22	5783	270	0
22	5999	280	0
22	6212	290	0
22	6430	300	0
22	6642	310	0
22	6860	320	0
22	7076	330	0
22	7290	340	0
22	7504	350	0
22	7725	360	0
22	7936	370	0
22	8152	380	0
22	8368	390	0
22	8584	400	0
22	8797	410	0
22	9015	420	0
22	9227	430	0
22	9445	440	0
22	9661	450	0
22	9875	460	0
22	10089	470	0
22	10310	480	0
22	10521	490	0
22	10737	500	0
22	10953	510	0
22	11169	520	0
22	11382	530	0
22	11600	540	0
22	11812	550	0
22	12030	560	0
22	12246	570	0
22	12460	580	0
22	12674	590	0
22	12895	600	0
22	13106	610	0
22	13322	620	0
22	13538	630	0
22	13754	640	0
22	13967	650	0
22	14185	660	0
22	14397	670	0
22	14615	680	0
22	14831	690	0
22	15045	700	0
22	15259	710	0
22	15480	720	0
22	15691	730	0
22	15907	740	0
22	16123	750	0
22	16339	760	0
22	16552	770	0
22	16770	780	0
22	16982	790	0
22	17200	800	0
22	17416	810	0
22	17630	820	0
22	17844	830	0
22	18065	840	0
22	18276	850	0
22	18492	860	0
22	18708	870	0
22	18924	880	0
22	19137	890	0
22	19355	900	0
22	19567	910	0
22	19785	920	0
22	20001	930	0
22	20215	940	0
22	20429	950	0
22	20650	960	0
22	20861	970	0
22	21077	980	0
22	21293	990	0
22	21509	1000	0
22	21722	1010	0
22	21940	1020	0
22	22152	1030	0
22	22370	1040	0
22	22586	1050	0
22	22800	1060	0
22	23014	1070	0
22	23235	1080	0
22	23446	1090	0
22	23662	1100	0
22	23878	1110	0
22	24094	1120	0
22	24307	1130	0
22	24525	1140	0
22	24737	1150	0
22	24955	1160	0
22	25171	1170	0
22	25385	1180	0
22	25599	1190	0
22	25820	1200	0
22	26031	1210	0
22	26247	1220	0
22	26463	1230	0
22	26679	1240	0
22	26892	1250	0
22	27110	1260	0
22	27322	1270	0
22	27540	1280	0
22	27756	1290	0
22	27970	1300	0
22	28184	1310	0
22	28405	1320	0
22	28616	1330	0
22	28832	1340	0
22	29048	1350	0
22	29264	1360	0
22	29477	1370	0
22	29695	1380	0
22	29907	1390	0
22	30125	1400	0
22	30341	1410	0
22	30555	1420	0
22	30769	1430	0
22	30990	1440	0
22	31201	1450	0
22	31417	1460	0
22	31633	1470	0
22	31849	1480	0
22	32062	1490	0
22	32280	1500	0
22	32492	1510	0
22	32710	1520	0
22	32926	1530	0
22	33140	1540	0
22	33354	1550	0
22	33575	1560	0
22	33786	1570	0
22	34002	1580	0
22	34218	1590	0
22	34434	1600	0
22	34647	1610	0
22	34865	1620	0
22	35077	1630	0
22	35295	1640	0
22	35511	1650	0
22	35725	1660	0
22	35939	1670	0
22	36160	1680	0
22	36371	1690	0
22	36587	1700	0
22	36803	1710	0
22	37019	1720	0
22	37232	1730	0
22	37450	1740	0
22	37662	1750	0
22	37880	1760	0
22	38096	1770	0
22	38310	1780	0
22	38524	1790	0
22	38745	1800	0
22	38956	1810	0
22	39172	1820	0
22	39388	1830	0
22	39604	1840	0
22	39817	1850	0
22	40035	1860	0
22	40247	1870	0
22	40465	1880	0
22	40681	1890	0
22	40895	1900	0
22	41109	1910	0
22	41330	1920	0
22	41541	1930	0
22	41757	1940	0
22	41973	1950	0
22	42189	1960	0
22	42402	1970	0
22	42620	1980	0
22	42832	1990	0
22	43050	2000	0
22	43266	2010	0
22	43480	2020	0
22	43694	2030	0
22	43915	2040	0

