version 2
run _10UsersSetupWRR-0-20201118-21:30:46-14152
attr configname _10UsersSetupWRR
attr datetime 20201118-21:30:46
attr experiment _10UsersSetupWRR
attr inifile omnetpp.ini
attr iterationvars ""
attr iterationvarsf ""
attr measurement ""
attr network Network
attr processid 14152
attr repetition 0
attr replication #0
attr resultdir results
attr runnumber 0
attr seedset 0
param **.algorithm "\"wrr\""
param **.usersCount 10
param **.channelsCount 500
param **.scheduler.generateInterval 5s
param **.user[0].gen.generateInterval 1s
param **.user[1].gen.generateInterval 2s
param **.user[2].gen.generateInterval 1s
param **.user[3].gen.generateInterval 3s
param **.user[4].gen.generateInterval 1s
param **.user[5].gen.generateInterval 4s
param **.user[6].gen.generateInterval 2s
param **.user[7].gen.generateInterval 2s
param **.user[8].gen.generateInterval 6s
param **.user[9].gen.generateInterval 8s
param **.user[0].radioLinkQuality 5
param **.user[1].radioLinkQuality 3
param **.user[2].radioLinkQuality 4
param **.user[3].radioLinkQuality 8
param **.user[4].radioLinkQuality 10
param **.user[5].radioLinkQuality 3
param **.user[6].radioLinkQuality 4
param **.user[7].radioLinkQuality 3
param **.user[8].radioLinkQuality 2
param **.user[9].radioLinkQuality 7
param **.user[0].gen.startingMessage 0
param **.user[1].gen.startingMessage 100
param **.user[2].gen.startingMessage 200
param **.user[3].gen.startingMessage 300
param **.user[4].gen.startingMessage 400
param **.user[5].gen.startingMessage 500
param **.user[6].gen.startingMessage 600
param **.user[7].gen.startingMessage 700
param **.user[8].gen.startingMessage 800
param **.user[9].gen.startingMessage 900

vector 0 Network.user[0].queue "Queue before scheduler's run." ETV
vector 1 Network.user[1].queue "Queue before scheduler's run." ETV
vector 2 Network.user[2].queue "Queue before scheduler's run." ETV
vector 3 Network.user[3].queue "Queue before scheduler's run." ETV
vector 4 Network.user[4].queue "Queue before scheduler's run." ETV
vector 5 Network.user[5].queue "Queue before scheduler's run." ETV
vector 6 Network.user[6].queue "Queue before scheduler's run." ETV
vector 7 Network.user[7].queue "Queue before scheduler's run." ETV
vector 8 Network.user[8].queue "Queue before scheduler's run." ETV
vector 9 Network.user[9].queue "Queue before scheduler's run." ETV
vector 10 Network.user[0].queue "Queue after scheduler's run." ETV
vector 11 Network.user[1].queue "Queue after scheduler's run." ETV
vector 12 Network.user[2].queue "Queue after scheduler's run." ETV
vector 13 Network.user[3].queue "Queue after scheduler's run." ETV
vector 14 Network.user[4].queue "Queue after scheduler's run." ETV
vector 15 Network.user[5].queue "Queue after scheduler's run." ETV
vector 16 Network.user[6].queue "Queue after scheduler's run." ETV
vector 17 Network.user[7].queue "Queue after scheduler's run." ETV
vector 18 Network.sink lifetime:vector ETV
attr interpolationmode none
attr title "lifetime of arrived jobs, vector"
attr unit s
vector 19 Network.user[8].queue "Queue after scheduler's run." ETV
vector 20 Network.user[9].queue "Queue after scheduler's run." ETV
0	45	5	4
0	149	10	5
0	259	15	5
0	372	20	5
0	486	25	5
0	600	30	5
0	707	35	5
0	822	40	5
0	933	45	5
0	1046	50	5
0	1157	55	5
0	1271	60	5
0	1381	65	5
0	1494	70	5
0	1604	75	5
0	1719	80	5
0	1831	85	5
0	1945	90	5
0	2052	95	5
0	2165	100	5
0	2278	105	5
0	2391	110	5
0	2502	115	5
0	2618	120	5
0	2726	125	5
0	2839	130	5
0	2949	135	5
0	3062	140	5
0	3176	145	5
0	3290	150	5
0	3397	155	5
0	3512	160	5
0	3623	165	5
0	3736	170	5
0	3847	175	5
0	3961	180	5
0	4071	185	5
0	4184	190	5
0	4294	195	5
0	4409	200	5
0	4521	205	5
0	4635	210	5
0	4742	215	5
0	4855	220	5
0	4968	225	5
0	5081	230	5
0	5192	235	5
0	5308	240	5
0	5416	245	5
0	5529	250	5
0	5639	255	5
0	5752	260	5
0	5866	265	5
0	5980	270	5
0	6087	275	5
0	6202	280	5
0	6313	285	5
0	6426	290	5
0	6537	295	5
1	46	5	2
1	150	10	2
1	260	15	3
1	373	20	2
1	487	25	3
1	601	30	2
1	708	35	3
1	823	40	2
1	934	45	3
1	1047	50	2
1	1158	55	3
1	1272	60	2
1	1382	65	3
1	1495	70	2
1	1605	75	3
1	1720	80	2
1	1832	85	3
1	1946	90	2
1	2053	95	3
1	2166	100	2
1	2279	105	3
1	2392	110	2
1	2503	115	3
1	2619	120	2
1	2727	125	3
1	2840	130	2
1	2950	135	3
1	3063	140	2
1	3177	145	3
1	3291	150	2
1	3398	155	3
1	3513	160	2
1	3624	165	3
1	3737	170	2
1	3848	175	3
1	3962	180	2
1	4072	185	3
1	4185	190	2
1	4295	195	3
1	4410	200	2
1	4522	205	3
1	4636	210	2
1	4743	215	3
1	4856	220	2
1	4969	225	3
1	5082	230	2
1	5193	235	3
1	5309	240	2
1	5417	245	3
1	5530	250	2
1	5640	255	3
1	5753	260	2
1	5867	265	3
1	5981	270	2
1	6088	275	3
1	6203	280	2
1	6314	285	3
1	6427	290	2
1	6538	295	3
2	47	5	4
2	151	10	5
2	261	15	5
2	374	20	5
2	488	25	5
2	602	30	5
2	709	35	5
2	824	40	5
2	935	45	5
2	1048	50	5
2	1159	55	5
2	1273	60	5
2	1383	65	5
2	1496	70	5
2	1606	75	5
2	1721	80	5
2	1833	85	5
2	1947	90	5
2	2054	95	5
2	2167	100	5
2	2280	105	5
2	2393	110	5
2	2504	115	5
2	2620	120	5
2	2728	125	5
2	2841	130	5
2	2951	135	5
2	3064	140	5
2	3178	145	5
2	3292	150	5
2	3399	155	5
2	3514	160	5
2	3625	165	5
2	3738	170	5
2	3849	175	5
2	3963	180	5
2	4073	185	5
2	4186	190	5
2	4296	195	5
2	4411	200	5
2	4523	205	5
2	4637	210	5
2	4744	215	5
2	4857	220	5
2	4970	225	5
2	5083	230	5
2	5194	235	5
2	5310	240	5
2	5418	245	5
2	5531	250	5
2	5641	255	5
2	5754	260	5
2	5868	265	5
2	5982	270	5
2	6089	275	5
2	6204	280	5
2	6315	285	5
2	6428	290	5
2	6539	295	5
3	48	5	1
3	152	10	2
3	262	15	1
3	375	20	2
3	489	25	2
3	603	30	1
3	710	35	2
3	825	40	2
3	936	45	1
3	1049	50	2
3	1160	55	2
3	1274	60	1
3	1384	65	2
3	1497	70	2
3	1607	75	1
3	1722	80	2
3	1834	85	2
3	1948	90	1
3	2055	95	2
3	2168	100	2
3	2281	105	1
3	2394	110	2
3	2505	115	2
3	2621	120	1
3	2729	125	2
3	2842	130	2
3	2952	135	1
3	3065	140	2
3	3179	145	2
3	3293	150	1
3	3400	155	2
3	3515	160	2
3	3626	165	1
3	3739	170	2
3	3850	175	2
3	3964	180	1
3	4074	185	2
3	4187	190	2
3	4297	195	1
3	4412	200	2
3	4524	205	2
3	4638	210	1
3	4745	215	2
3	4858	220	2
3	4971	225	1
3	5084	230	2
3	5195	235	2
3	5311	240	1
3	5419	245	2
3	5532	250	2
3	5642	255	1
3	5755	260	2
3	5869	265	2
3	5983	270	1
3	6090	275	2
3	6205	280	2
3	6316	285	1
3	6429	290	2
3	6540	295	2
4	49	5	4
4	153	10	5
4	263	15	5
4	376	20	5
4	490	25	5
4	604	30	5
4	711	35	5
4	826	40	5
4	937	45	5
4	1050	50	5
4	1161	55	5
4	1275	60	5
4	1385	65	5
4	1498	70	5
4	1608	75	5
4	1723	80	5
4	1835	85	5
4	1949	90	5
4	2056	95	5
4	2169	100	5
4	2282	105	5
4	2395	110	5
4	2506	115	5
4	2622	120	5
4	2730	125	5
4	2843	130	5
4	2953	135	5
4	3066	140	5
4	3180	145	5
4	3294	150	5
4	3401	155	5
4	3516	160	5
4	3627	165	5
4	3740	170	5
4	3851	175	5
4	3965	180	5
4	4075	185	5
4	4188	190	5
4	4298	195	5
4	4413	200	5
4	4525	205	5
4	4639	210	5
4	4746	215	5
4	4859	220	5
4	4972	225	5
4	5085	230	5
4	5196	235	5
4	5312	240	5
4	5420	245	5
4	5533	250	5
4	5643	255	5
4	5756	260	5
4	5870	265	5
4	5984	270	5
4	6091	275	5
4	6206	280	5
4	6317	285	5
4	6430	290	5
4	6541	295	5
5	50	5	1
5	154	10	1
5	264	15	1
5	377	20	1
5	491	25	2
5	605	30	1
5	712	35	1
5	827	40	1
5	938	45	2
5	1051	50	1
5	1162	55	1
5	1276	60	1
5	1386	65	2
5	1499	70	1
5	1609	75	1
5	1724	80	1
5	1836	85	2
5	1950	90	1
5	2057	95	1
5	2170	100	1
5	2283	105	2
5	2396	110	1
5	2507	115	1
5	2623	120	1
5	2731	125	2
5	2844	130	1
5	2954	135	1
5	3067	140	1
5	3181	145	2
5	3295	150	1
5	3402	155	1
5	3517	160	1
5	3628	165	2
5	3741	170	1
5	3852	175	1
5	3966	180	1
5	4076	185	2
5	4189	190	1
5	4299	195	1
5	4414	200	1
5	4526	205	2
5	4640	210	1
5	4747	215	1
5	4860	220	1
5	4973	225	2
5	5086	230	1
5	5197	235	1
5	5313	240	1
5	5421	245	2
5	5534	250	1
5	5644	255	1
5	5757	260	1
5	5871	265	2
5	5985	270	1
5	6092	275	1
5	6207	280	1
5	6318	285	2
5	6431	290	1
5	6542	295	1
6	51	5	2
6	155	10	2
6	265	15	3
6	378	20	2
6	492	25	3
6	606	30	2
6	713	35	3
6	828	40	2
6	939	45	3
6	1052	50	2
6	1163	55	3
6	1277	60	2
6	1387	65	3
6	1500	70	2
6	1610	75	3
6	1725	80	2
6	1837	85	3
6	1951	90	2
6	2058	95	3
6	2171	100	2
6	2284	105	3
6	2397	110	2
6	2508	115	3
6	2624	120	2
6	2732	125	3
6	2845	130	2
6	2955	135	3
6	3068	140	2
6	3182	145	3
6	3296	150	2
6	3403	155	3
6	3518	160	2
6	3629	165	3
6	3742	170	2
6	3853	175	3
6	3967	180	2
6	4077	185	3
6	4190	190	2
6	4300	195	3
6	4415	200	2
6	4527	205	3
6	4641	210	2
6	4748	215	3
6	4861	220	2
6	4974	225	3
6	5087	230	2
6	5198	235	3
6	5314	240	2
6	5422	245	3
6	5535	250	2
6	5645	255	3
6	5758	260	2
6	5872	265	3
6	5986	270	2
6	6093	275	3
6	6208	280	2
6	6319	285	3
6	6432	290	2
6	6543	295	3
7	52	5	2
7	156	10	2
7	266	15	3
7	379	20	2
7	493	25	3
7	607	30	2
7	714	35	3
7	829	40	2
7	940	45	3
7	1053	50	2
7	1164	55	3
7	1278	60	2
7	1388	65	3
7	1501	70	2
7	1611	75	3
7	1726	80	2
7	1838	85	3
7	1952	90	2
7	2059	95	3
7	2172	100	2
7	2285	105	3
7	2398	110	2
7	2509	115	3
7	2625	120	2
7	2733	125	3
7	2846	130	2
7	2956	135	3
7	3069	140	2
7	3183	145	3
7	3297	150	2
7	3404	155	3
7	3519	160	2
7	3630	165	3
7	3743	170	2
7	3854	175	3
7	3968	180	2
7	4078	185	3
7	4191	190	2
7	4301	195	3
7	4416	200	2
7	4528	205	3
7	4642	210	2
7	4749	215	3
7	4862	220	2
7	4975	225	3
7	5088	230	2
7	5199	235	3
7	5315	240	2
7	5423	245	3
7	5536	250	2
7	5646	255	3
7	5759	260	2
7	5873	265	3
7	5987	270	2
7	6094	275	3
7	6209	280	2
7	6320	285	3
7	6433	290	2
7	6544	295	3
8	53	5	0
8	157	10	1
8	267	15	1
8	380	20	1
8	494	25	1
8	608	30	1
8	715	35	0
8	830	40	1
8	941	45	1
8	1054	50	1
8	1165	55	1
8	1279	60	1
8	1389	65	0
8	1502	70	1
8	1612	75	1
8	1727	80	1
8	1839	85	1
8	1953	90	1
8	2060	95	0
8	2173	100	1
8	2286	105	1
8	2399	110	1
8	2510	115	1
8	2626	120	1
8	2734	125	0
8	2847	130	1
8	2957	135	1
8	3070	140	1
8	3184	145	1
8	3298	150	1
8	3405	155	0
8	3520	160	1
8	3631	165	1
8	3744	170	1
8	3855	175	1
8	3969	180	1
8	4079	185	0
8	4192	190	1
8	4302	195	1
8	4417	200	1
8	4529	205	1
8	4643	210	1
8	4750	215	0
8	4863	220	1
8	4976	225	1
8	5089	230	1
8	5200	235	1
8	5316	240	1
8	5424	245	0
8	5537	250	1
8	5647	255	1
8	5760	260	1
8	5874	265	1
8	5988	270	1
8	6095	275	0
8	6210	280	1
8	6321	285	1
8	6434	290	1
8	6545	295	1
9	54	5	0
9	158	10	1
9	268	15	0
9	381	20	1
9	495	25	1
9	609	30	0
9	716	35	1
9	831	40	1
9	942	45	0
9	1055	50	1
9	1166	55	0
9	1280	60	1
9	1390	65	1
9	1503	70	0
9	1613	75	1
9	1728	80	1
9	1840	85	0
9	1954	90	1
9	2061	95	0
9	2174	100	1
9	2287	105	1
9	2400	110	0
9	2511	115	1
9	2627	120	1
9	2735	125	0
9	2848	130	1
9	2958	135	0
9	3071	140	1
9	3185	145	1
9	3299	150	0
9	3406	155	1
9	3521	160	1
9	3632	165	0
9	3745	170	1
9	3856	175	0
9	3970	180	1
9	4080	185	1
9	4193	190	0
9	4303	195	1
9	4418	200	1
9	4530	205	0
9	4644	210	1
9	4751	215	0
9	4864	220	1
9	4977	225	1
9	5090	230	0
9	5201	235	1
9	5317	240	1
9	5425	245	0
9	5538	250	1
9	5648	255	0
9	5761	260	1
9	5875	265	1
9	5989	270	0
9	6096	275	1
9	6211	280	1
9	6322	285	0
9	6435	290	1
9	6546	295	0
10	68	5	1
10	177	10	1
10	289	15	1
10	406	20	1
10	516	25	1
10	633	30	1
10	736	35	1
10	856	40	1
10	963	45	1
10	1079	50	1
10	1186	55	1
10	1306	60	1
10	1410	65	1
10	1526	70	1
10	1635	75	1
10	1753	80	1
10	1860	85	1
10	1979	90	1
10	2080	95	1
10	2199	100	1
10	2309	105	1
10	2423	110	1
10	2532	115	1
10	2653	120	1
10	2754	125	1
10	2872	130	1
10	2979	135	1
10	3096	140	1
10	3206	145	1
10	3323	150	1
10	3426	155	1
10	3546	160	1
10	3653	165	1
10	3769	170	1
10	3876	175	1
10	3996	180	1
10	4100	185	1
10	4216	190	1
10	4325	195	1
10	4443	200	1
10	4550	205	1
10	4669	210	1
10	4770	215	1
10	4889	220	1
10	4999	225	1
10	5113	230	1
10	5222	235	1
10	5343	240	1
10	5444	245	1
10	5562	250	1
10	5669	255	1
10	5786	260	1
10	5896	265	1
10	6013	270	1
10	6116	275	1
10	6236	280	1
10	6343	285	1
10	6459	290	1
10	6566	295	1
11	69	5	0
11	178	10	1
11	290	15	0
11	407	20	1
11	517	25	0
11	634	30	1
11	737	35	0
11	857	40	1
11	964	45	0
11	1080	50	1
11	1187	55	0
11	1307	60	1
11	1411	65	0
11	1527	70	1
11	1636	75	0
11	1754	80	1
11	1861	85	0
11	1980	90	1
11	2081	95	0
11	2200	100	1
11	2310	105	0
11	2424	110	1
11	2533	115	0
11	2654	120	1
11	2755	125	0
11	2873	130	1
11	2980	135	0
11	3097	140	1
11	3207	145	0
11	3324	150	1
11	3427	155	0
11	3547	160	1
11	3654	165	0
11	3770	170	1
11	3877	175	0
11	3997	180	1
11	4101	185	0
11	4217	190	1
11	4326	195	0
11	4444	200	1
11	4551	205	0
11	4670	210	1
11	4771	215	0
11	4890	220	1
11	5000	225	0
11	5114	230	1
11	5223	235	0
11	5344	240	1
11	5445	245	0
11	5563	250	1
11	5670	255	0
11	5787	260	1
11	5897	265	0
11	6014	270	1
11	6117	275	0
11	6237	280	1
11	6344	285	0
11	6460	290	1
11	6567	295	0
12	70	5	1
12	179	10	2
12	185	10	1
12	291	15	2
12	292	15	1
12	408	20	2
12	409	20	1
12	518	25	2
12	519	25	1
12	635	30	2
12	636	30	1
12	738	35	2
12	739	35	1
12	858	40	2
12	859	40	1
12	965	45	2
12	966	45	1
12	1081	50	2
12	1082	50	1
12	1188	55	2
12	1189	55	1
12	1308	60	2
12	1309	60	1
12	1412	65	2
12	1413	65	1
12	1528	70	2
12	1529	70	1
12	1637	75	2
12	1638	75	1
12	1755	80	2
12	1756	80	1
12	1862	85	2
12	1863	85	1
12	1981	90	2
12	1982	90	1
12	2082	95	2
12	2083	95	1
12	2201	100	2
12	2202	100	1
12	2311	105	2
12	2312	105	1
12	2425	110	2
12	2426	110	1
12	2534	115	2
12	2535	115	1
12	2655	120	2
12	2656	120	1
12	2756	125	2
12	2757	125	1
12	2874	130	2
12	2875	130	1
12	2981	135	2
12	2982	135	1
12	3098	140	2
12	3099	140	1
12	3208	145	2
12	3209	145	1
12	3325	150	2
12	3326	150	1
12	3428	155	2
12	3429	155	1
12	3548	160	2
12	3549	160	1
12	3655	165	2
12	3656	165	1
12	3771	170	2
12	3772	170	1
12	3878	175	2
12	3879	175	1
12	3998	180	2
12	3999	180	1
12	4102	185	2
12	4103	185	1
12	4218	190	2
12	4219	190	1
12	4327	195	2
12	4328	195	1
12	4445	200	2
12	4446	200	1
12	4552	205	2
12	4553	205	1
12	4671	210	2
12	4672	210	1
12	4772	215	2
12	4773	215	1
12	4891	220	2
12	4892	220	1
12	5001	225	2
12	5002	225	1
12	5115	230	2
12	5116	230	1
12	5224	235	2
12	5225	235	1
12	5345	240	2
12	5346	240	1
12	5446	245	2
12	5447	245	1
12	5564	250	2
12	5565	250	1
12	5671	255	2
12	5672	255	1
12	5788	260	2
12	5789	260	1
12	5898	265	2
12	5899	265	1
12	6015	270	2
12	6016	270	1
12	6118	275	2
12	6119	275	1
12	6238	280	2
12	6239	280	1
12	6345	285	2
12	6346	285	1
12	6461	290	2
12	6462	290	1
12	6568	295	2
12	6569	295	1
13	71	5	0
13	180	10	0
13	283	15	1
13	399	20	0
13	509	25	0
13	627	30	1
13	730	35	0
13	849	40	0
13	957	45	1
13	1072	50	0
13	1180	55	0
13	1299	60	1
13	1404	65	0
13	1520	70	0
13	1628	75	1
13	1746	80	0
13	1854	85	0
13	1972	90	1
13	2075	95	0
13	2192	100	0
13	2302	105	1
13	2417	110	0
13	2525	115	0
13	2646	120	1
13	2749	125	0
13	2865	130	0
13	2973	135	1
13	3089	140	0
13	3199	145	0
13	3317	150	1
13	3420	155	0
13	3539	160	0
13	3647	165	1
13	3762	170	0
13	3870	175	0
13	3989	180	1
13	4094	185	0
13	4210	190	0
13	4318	195	1
13	4436	200	0
13	4544	205	0
13	4662	210	1
13	4765	215	0
13	4882	220	0
13	4992	225	1
13	5107	230	0
13	5215	235	0
13	5336	240	1
13	5439	245	0
13	5555	250	0
13	5663	255	1
13	5779	260	0
13	5889	265	0
13	6007	270	1
13	6110	275	0
13	6229	280	0
13	6337	285	1
13	6452	290	0
13	6560	295	0
14	72	5	1
14	181	10	1
14	284	15	1
14	400	20	1
14	510	25	1
14	628	30	1
14	731	35	1
14	850	40	1
14	958	45	1
14	1073	50	1
14	1181	55	1
14	1300	60	1
14	1405	65	1
14	1521	70	1
14	1629	75	1
14	1747	80	1
14	1855	85	1
14	1973	90	1
14	2076	95	1
14	2193	100	1
14	2303	105	1
14	2418	110	1
14	2526	115	1
14	2647	120	1
14	2750	125	1
14	2866	130	1
14	2974	135	1
14	3090	140	1
14	3200	145	1
14	3318	150	1
14	3421	155	1
14	3540	160	1
14	3648	165	1
14	3763	170	1
14	3871	175	1
14	3990	180	1
14	4095	185	1
14	4211	190	1
14	4319	195	1
14	4437	200	1
14	4545	205	1
14	4663	210	1
14	4766	215	1
14	4883	220	1
14	4993	225	1
14	5108	230	1
14	5216	235	1
14	5337	240	1
14	5440	245	1
14	5556	250	1
14	5664	255	1
14	5780	260	1
14	5890	265	1
14	6008	270	1
14	6111	275	1
14	6230	280	1
14	6338	285	1
14	6453	290	1
14	6561	295	1
15	73	5	0
15	182	10	0
15	285	15	0
15	401	20	1
15	511	25	0
15	629	30	0
15	732	35	0
15	851	40	1
15	959	45	0
15	1074	50	0
15	1182	55	0
15	1301	60	1
15	1406	65	0
15	1522	70	0
15	1630	75	0
15	1748	80	1
15	1856	85	0
15	1974	90	0
15	2077	95	0
15	2194	100	1
15	2304	105	0
15	2419	110	0
15	2527	115	0
15	2648	120	1
15	2751	125	0
15	2867	130	0
15	2975	135	0
15	3091	140	1
15	3201	145	0
15	3319	150	0
15	3422	155	0
15	3541	160	1
15	3649	165	0
15	3764	170	0
15	3872	175	0
15	3991	180	1
15	4096	185	0
15	4212	190	0
15	4320	195	0
15	4438	200	1
15	4546	205	0
15	4664	210	0
15	4767	215	0
15	4884	220	1
15	4994	225	0
15	5109	230	0
15	5217	235	0
15	5338	240	1
15	5441	245	0
15	5557	250	0
15	5665	255	0
15	5781	260	1
15	5891	265	0
15	6009	270	0
15	6112	275	0
15	6231	280	1
15	6339	285	0
15	6454	290	0
15	6562	295	0
16	74	5	0
16	183	10	1
16	286	15	0
16	402	20	1
16	512	25	0
16	630	30	1
16	733	35	0
16	852	40	1
16	960	45	0
16	1075	50	1
16	1183	55	0
16	1302	60	1
16	1407	65	0
16	1523	70	1
16	1631	75	0
16	1749	80	1
16	1857	85	0
16	1975	90	1
16	2078	95	0
16	2195	100	1
16	2305	105	0
16	2420	110	1
16	2528	115	0
16	2649	120	1
16	2752	125	0
16	2868	130	1
16	2976	135	0
16	3092	140	1
16	3202	145	0
16	3320	150	1
16	3423	155	0
16	3542	160	1
16	3650	165	0
16	3765	170	1
16	3873	175	0
16	3992	180	1
16	4097	185	0
16	4213	190	1
16	4321	195	0
16	4439	200	1
16	4547	205	0
16	4665	210	1
16	4768	215	0
16	4885	220	1
16	4995	225	0
16	5110	230	1
16	5218	235	0
16	5339	240	1
16	5442	245	0
16	5558	250	1
16	5666	255	0
16	5782	260	1
16	5892	265	0
16	6010	270	1
16	6113	275	0
16	6232	280	1
16	6340	285	0
16	6455	290	1
16	6563	295	0
17	75	5	0
17	184	10	1
17	287	15	0
17	403	20	1
17	513	25	0
17	631	30	1
17	734	35	0
17	853	40	1
17	961	45	0
17	1076	50	1
17	1184	55	0
17	1303	60	1
17	1408	65	0
17	1524	70	1
17	1632	75	0
17	1750	80	1
17	1858	85	0
17	1976	90	1
17	2079	95	0
17	2196	100	1
17	2306	105	0
17	2421	110	1
17	2529	115	0
17	2650	120	1
17	2753	125	0
17	2869	130	1
17	2977	135	0
17	3093	140	1
17	3203	145	0
17	3321	150	1
17	3424	155	0
17	3543	160	1
17	3651	165	0
17	3766	170	1
17	3874	175	0
17	3993	180	1
17	4098	185	0
17	4214	190	1
17	4322	195	0
17	4440	200	1
17	4548	205	0
17	4666	210	1
17	4769	215	0
17	4886	220	1
17	4996	225	0
17	5111	230	1
17	5219	235	0
17	5340	240	1
17	5443	245	0
17	5559	250	1
17	5667	255	0
17	5783	260	1
17	5893	265	0
17	6011	270	1
17	6114	275	0
17	6233	280	1
17	6341	285	0
17	6456	290	1
17	6564	295	0
18	76	5	4
18	77	5	3
18	78	5	2
18	79	5	1
18	80	5	3
18	81	5	1
18	82	5	4
18	83	5	3
18	84	5	2
18	85	5	1
18	86	5	2
18	87	5	4
18	88	5	3
18	89	5	2
18	90	5	1
18	91	5	1
18	92	5	3
18	93	5	1
18	94	5	3
18	95	5	1
18	186	10	4
18	187	10	2
18	188	10	5
18	189	10	4
18	190	10	3
18	191	10	2
18	192	10	1
18	193	10	4
18	194	10	2
18	195	10	5
18	196	10	4
18	197	10	3
18	198	10	2
18	199	10	4
18	200	10	1
18	201	10	5
18	202	10	4
18	203	10	3
18	204	10	2
18	205	10	1
18	206	10	2
18	207	10	4
18	208	10	2
18	209	10	4
18	210	10	2
18	211	10	1
18	293	15	3
18	294	15	5
18	295	15	4
18	296	15	3
18	297	15	2
18	298	15	1
18	299	15	3
18	300	15	5
18	301	15	3
18	302	15	1
18	303	15	5
18	304	15	3
18	305	15	1
18	306	15	3
18	307	15	5
18	308	15	4
18	309	15	3
18	310	15	2
18	311	15	1
18	312	15	5
18	313	15	3
18	314	15	1
18	315	15	5
18	316	15	4
18	317	15	3
18	318	15	2
18	319	15	1
18	410	20	5
18	411	20	2
18	412	20	5
18	413	20	4
18	414	20	3
18	415	20	2
18	416	20	1
18	417	20	4
18	418	20	4
18	419	20	2
18	420	20	4
18	421	20	2
18	422	20	2
18	423	20	4
18	424	20	5
18	425	20	4
18	426	20	3
18	427	20	2
18	428	20	1
18	429	20	4
18	430	20	2
18	431	20	5
18	432	20	4
18	433	20	3
18	434	20	2
18	435	20	1
18	520	25	4
18	521	25	1
18	522	25	5
18	523	25	4
18	524	25	3
18	525	25	2
18	526	25	1
18	527	25	5
18	528	25	1
18	529	25	5
18	530	25	3
18	531	25	1
18	532	25	5
18	533	25	3
18	534	25	1
18	535	25	1
18	536	25	1
18	537	25	5
18	538	25	4
18	539	25	3
18	540	25	2
18	541	25	1
18	542	25	5
18	543	25	3
18	544	25	1
18	545	25	5
18	546	25	4
18	547	25	3
18	548	25	2
18	549	25	1
18	637	30	3
18	638	30	5
18	639	30	4
18	640	30	3
18	641	30	2
18	642	30	1
18	643	30	2
18	644	30	4
18	645	30	2
18	646	30	4
18	647	30	2
18	648	30	0
18	649	30	5
18	650	30	4
18	651	30	3
18	652	30	2
18	653	30	1
18	654	30	4
18	655	30	2
18	656	30	5
18	657	30	4
18	658	30	3
18	659	30	2
18	660	30	1
18	740	35	5
18	741	35	2
18	742	35	5
18	743	35	4
18	744	35	3
18	745	35	2
18	746	35	1
18	747	35	3
18	748	35	5
18	749	35	3
18	750	35	1
18	751	35	5
18	752	35	3
18	753	35	1
18	754	35	3
18	755	35	5
18	756	35	4
18	757	35	3
18	758	35	2
18	759	35	1
18	760	35	5
18	761	35	3
18	762	35	1
18	763	35	5
18	764	35	4
18	765	35	3
18	766	35	2
18	767	35	1
18	860	40	4
18	861	40	1
18	862	40	5
18	863	40	4
18	864	40	3
18	865	40	2
18	866	40	1
18	867	40	4
18	868	40	4
18	869	40	2
18	870	40	4
18	871	40	2
18	872	40	4
18	873	40	0
18	874	40	5
18	875	40	4
18	876	40	3
18	877	40	2
18	878	40	1
18	879	40	4
18	880	40	2
18	881	40	5
18	882	40	4
18	883	40	3
18	884	40	2
18	885	40	1
18	967	45	3
18	968	45	5
18	969	45	4
18	970	45	3
18	971	45	2
18	972	45	1
18	973	45	5
18	974	45	1
18	975	45	5
18	976	45	3
18	977	45	1
18	978	45	5
18	979	45	3
18	980	45	1
18	981	45	3
18	982	45	5
18	983	45	4
18	984	45	3
18	985	45	2
18	986	45	1
18	987	45	5
18	988	45	3
18	989	45	1
18	990	45	5
18	991	45	4
18	992	45	3
18	993	45	2
18	994	45	1
18	1083	50	5
18	1084	50	2
18	1085	50	5
18	1086	50	4
18	1087	50	3
18	1088	50	2
18	1089	50	1
18	1090	50	2
18	1091	50	4
18	1092	50	2
18	1093	50	4
18	1094	50	2
18	1095	50	2
18	1096	50	2
18	1097	50	5
18	1098	50	4
18	1099	50	3
18	1100	50	2
18	1101	50	1
18	1102	50	4
18	1103	50	2
18	1104	50	5
18	1105	50	4
18	1106	50	3
18	1107	50	2
18	1108	50	1
18	1190	55	4
18	1191	55	1
18	1192	55	5
18	1193	55	4
18	1194	55	3
18	1195	55	2
18	1196	55	1
18	1197	55	3
18	1198	55	5
18	1199	55	3
18	1200	55	1
18	1201	55	5
18	1202	55	3
18	1203	55	1
18	1204	55	1
18	1205	55	5
18	1206	55	4
18	1207	55	3
18	1208	55	2
18	1209	55	1
18	1210	55	5
18	1211	55	3
18	1212	55	1
18	1213	55	5
18	1214	55	4
18	1215	55	3
18	1216	55	2
18	1217	55	1
18	1310	60	3
18	1311	60	5
18	1312	60	4
18	1313	60	3
18	1314	60	2
18	1315	60	1
18	1316	60	4
18	1317	60	4
18	1318	60	2
18	1319	60	4
18	1320	60	2
18	1321	60	0
18	1322	60	4
18	1323	60	5
18	1324	60	4
18	1325	60	3
18	1326	60	2
18	1327	60	1
18	1328	60	4
18	1329	60	2
18	1330	60	5
18	1331	60	4
18	1332	60	3
18	1333	60	2
18	1334	60	1
18	1414	65	5
18	1415	65	2
18	1416	65	5
18	1417	65	4
18	1418	65	3
18	1419	65	2
18	1420	65	1
18	1421	65	5
18	1422	65	1
18	1423	65	5
18	1424	65	3
18	1425	65	1
18	1426	65	5
18	1427	65	3
18	1428	65	1
18	1429	65	1
18	1430	65	5
18	1431	65	4
18	1432	65	3
18	1433	65	2
18	1434	65	1
18	1435	65	5
18	1436	65	3
18	1437	65	1
18	1438	65	5
18	1439	65	4
18	1440	65	3
18	1441	65	2
18	1442	65	1
18	1530	70	4
18	1531	70	1
18	1532	70	5
18	1533	70	4
18	1534	70	3
18	1535	70	2
18	1536	70	1
18	1537	70	2
18	1538	70	4
18	1539	70	2
18	1540	70	4
18	1541	70	2
18	1542	70	4
18	1543	70	5
18	1544	70	4
18	1545	70	3
18	1546	70	2
18	1547	70	1
18	1548	70	4
18	1549	70	2
18	1550	70	5
18	1551	70	4
18	1552	70	3
18	1553	70	2
18	1554	70	1
18	1639	75	3
18	1640	75	5
18	1641	75	4
18	1642	75	3
18	1643	75	2
18	1644	75	1
18	1645	75	3
18	1646	75	5
18	1647	75	3
18	1648	75	1
18	1649	75	5
18	1650	75	3
18	1651	75	1
18	1652	75	3
18	1653	75	3
18	1654	75	5
18	1655	75	4
18	1656	75	3
18	1657	75	2
18	1658	75	1
18	1659	75	5
18	1660	75	3
18	1661	75	1
18	1662	75	5
18	1663	75	4
18	1664	75	3
18	1665	75	2
18	1666	75	1
18	1757	80	5
18	1758	80	2
18	1759	80	5
18	1760	80	4
18	1761	80	3
18	1762	80	2
18	1763	80	1
18	1764	80	4
18	1765	80	4
18	1766	80	2
18	1767	80	4
18	1768	80	2
18	1769	80	2
18	1770	80	0
18	1771	80	5
18	1772	80	4
18	1773	80	3
18	1774	80	2
18	1775	80	1
18	1776	80	4
18	1777	80	2
18	1778	80	5
18	1779	80	4
18	1780	80	3
18	1781	80	2
18	1782	80	1
18	1864	85	4
18	1865	85	1
18	1866	85	5
18	1867	85	4
18	1868	85	3
18	1869	85	2
18	1870	85	1
18	1871	85	5
18	1872	85	1
18	1873	85	5
18	1874	85	3
18	1875	85	1
18	1876	85	5
18	1877	85	3
18	1878	85	1
18	1879	85	1
18	1880	85	5
18	1881	85	4
18	1882	85	3
18	1883	85	2
18	1884	85	1
18	1885	85	5
18	1886	85	3
18	1887	85	1
18	1888	85	5
18	1889	85	4
18	1890	85	3
18	1891	85	2
18	1892	85	1
18	1983	90	3
18	1984	90	5
18	1985	90	4
18	1986	90	3
18	1987	90	2
18	1988	90	1
18	1989	90	2
18	1990	90	4
18	1991	90	2
18	1992	90	4
18	1993	90	2
18	1994	90	0
18	1995	90	2
18	1996	90	5
18	1997	90	4
18	1998	90	3
18	1999	90	2
18	2000	90	1
18	2001	90	4
18	2002	90	2
18	2003	90	5
18	2004	90	4
18	2005	90	3
18	2006	90	2
18	2007	90	1
18	2084	95	5
18	2085	95	2
18	2086	95	5
18	2087	95	4
18	2088	95	3
18	2089	95	2
18	2090	95	1
18	2091	95	3
18	2092	95	5
18	2093	95	3
18	2094	95	1
18	2095	95	5
18	2096	95	3
18	2097	95	1
18	2098	95	5
18	2099	95	4
18	2100	95	3
18	2101	95	2
18	2102	95	1
18	2103	95	5
18	2104	95	3
18	2105	95	1
18	2106	95	5
18	2107	95	4
18	2108	95	3
18	2109	95	2
18	2110	95	1
18	2203	100	4
18	2204	100	1
18	2205	100	5
18	2206	100	4
18	2207	100	3
18	2208	100	2
18	2209	100	1
18	2210	100	4
18	2211	100	4
18	2212	100	2
18	2213	100	4
18	2214	100	2
18	2215	100	4
18	2216	100	4
18	2217	100	5
18	2218	100	4
18	2219	100	3
18	2220	100	2
18	2221	100	1
18	2222	100	4
18	2223	100	2
18	2224	100	5
18	2225	100	4
18	2226	100	3
18	2227	100	2
18	2228	100	1
18	2313	105	3
18	2314	105	5
18	2315	105	4
18	2316	105	3
18	2317	105	2
18	2318	105	1
18	2319	105	5
18	2320	105	1
18	2321	105	5
18	2322	105	3
18	2323	105	1
18	2324	105	5
18	2325	105	3
18	2326	105	1
18	2327	105	3
18	2328	105	1
18	2329	105	5
18	2330	105	4
18	2331	105	3
18	2332	105	2
18	2333	105	1
18	2334	105	5
18	2335	105	3
18	2336	105	1
18	2337	105	5
18	2338	105	4
18	2339	105	3
18	2340	105	2
18	2341	105	1
18	2427	110	5
18	2428	110	2
18	2429	110	5
18	2430	110	4
18	2431	110	3
18	2432	110	2
18	2433	110	1
18	2434	110	2
18	2435	110	4
18	2436	110	2
18	2437	110	4
18	2438	110	2
18	2439	110	2
18	2440	110	5
18	2441	110	4
18	2442	110	3
18	2443	110	2
18	2444	110	1
18	2445	110	4
18	2446	110	2
18	2447	110	5
18	2448	110	4
18	2449	110	3
18	2450	110	2
18	2451	110	1
18	2536	115	4
18	2537	115	1
18	2538	115	5
18	2539	115	4
18	2540	115	3
18	2541	115	2
18	2542	115	1
18	2543	115	3
18	2544	115	5
18	2545	115	3
18	2546	115	1
18	2547	115	5
18	2548	115	3
18	2549	115	1
18	2550	115	1
18	2551	115	3
18	2552	115	5
18	2553	115	4
18	2554	115	3
18	2555	115	2
18	2556	115	1
18	2557	115	5
18	2558	115	3
18	2559	115	1
18	2560	115	5
18	2561	115	4
18	2562	115	3
18	2563	115	2
18	2564	115	1
18	2657	120	3
18	2658	120	5
18	2659	120	4
18	2660	120	3
18	2661	120	2
18	2662	120	1
18	2663	120	4
18	2664	120	4
18	2665	120	2
18	2666	120	4
18	2667	120	2
18	2668	120	0
18	2669	120	0
18	2670	120	5
18	2671	120	4
18	2672	120	3
18	2673	120	2
18	2674	120	1
18	2675	120	4
18	2676	120	2
18	2677	120	5
18	2678	120	4
18	2679	120	3
18	2680	120	2
18	2681	120	1
18	2758	125	5
18	2759	125	2
18	2760	125	5
18	2761	125	4
18	2762	125	3
18	2763	125	2
18	2764	125	1
18	2765	125	5
18	2766	125	1
18	2767	125	5
18	2768	125	3
18	2769	125	1
18	2770	125	5
18	2771	125	3
18	2772	125	1
18	2773	125	5
18	2774	125	4
18	2775	125	3
18	2776	125	2
18	2777	125	1
18	2778	125	5
18	2779	125	3
18	2780	125	1
18	2781	125	5
18	2782	125	4
18	2783	125	3
18	2784	125	2
18	2785	125	1
18	2876	130	4
18	2877	130	1
18	2878	130	5
18	2879	130	4
18	2880	130	3
18	2881	130	2
18	2882	130	1
18	2883	130	2
18	2884	130	4
18	2885	130	2
18	2886	130	4
18	2887	130	2
18	2888	130	4
18	2889	130	2
18	2890	130	5
18	2891	130	4
18	2892	130	3
18	2893	130	2
18	2894	130	1
18	2895	130	4
18	2896	130	2
18	2897	130	5
18	2898	130	4
18	2899	130	3
18	2900	130	2
18	2901	130	1
18	2983	135	3
18	2984	135	5
18	2985	135	4
18	2986	135	3
18	2987	135	2
18	2988	135	1
18	2989	135	3
18	2990	135	5
18	2991	135	3
18	2992	135	1
18	2993	135	5
18	2994	135	3
18	2995	135	1
18	2996	135	3
18	2997	135	5
18	2998	135	4
18	2999	135	3
18	3000	135	2
18	3001	135	1
18	3002	135	5
18	3003	135	3
18	3004	135	1
18	3005	135	5
18	3006	135	4
18	3007	135	3
18	3008	135	2
18	3009	135	1
18	3100	140	5
18	3101	140	2
18	3102	140	5
18	3103	140	4
18	3104	140	3
18	3105	140	2
18	3106	140	1
18	3107	140	4
18	3108	140	4
18	3109	140	2
18	3110	140	4
18	3111	140	2
18	3112	140	2
18	3113	140	4
18	3114	140	5
18	3115	140	4
18	3116	140	3
18	3117	140	2
18	3118	140	1
18	3119	140	4
18	3120	140	2
18	3121	140	5
18	3122	140	4
18	3123	140	3
18	3124	140	2
18	3125	140	1
18	3210	145	4
18	3211	145	1
18	3212	145	5
18	3213	145	4
18	3214	145	3
18	3215	145	2
18	3216	145	1
18	3217	145	5
18	3218	145	1
18	3219	145	5
18	3220	145	3
18	3221	145	1
18	3222	145	5
18	3223	145	3
18	3224	145	1
18	3225	145	1
18	3226	145	1
18	3227	145	5
18	3228	145	4
18	3229	145	3
18	3230	145	2
18	3231	145	1
18	3232	145	5
18	3233	145	3
18	3234	145	1
18	3235	145	5
18	3236	145	4
18	3237	145	3
18	3238	145	2
18	3239	145	1
18	3327	150	3
18	3328	150	5
18	3329	150	4
18	3330	150	3
18	3331	150	2
18	3332	150	1
18	3333	150	2
18	3334	150	4
18	3335	150	2
18	3336	150	4
18	3337	150	2
18	3338	150	0
18	3339	150	5
18	3340	150	4
18	3341	150	3
18	3342	150	2
18	3343	150	1
18	3344	150	4
18	3345	150	2
18	3346	150	5
18	3347	150	4
18	3348	150	3
18	3349	150	2
18	3350	150	1
18	3430	155	5
18	3431	155	2
18	3432	155	5
18	3433	155	4
18	3434	155	3
18	3435	155	2
18	3436	155	1
18	3437	155	3
18	3438	155	5
18	3439	155	3
18	3440	155	1
18	3441	155	5
18	3442	155	3
18	3443	155	1
18	3444	155	3
18	3445	155	5
18	3446	155	4
18	3447	155	3
18	3448	155	2
18	3449	155	1
18	3450	155	5
18	3451	155	3
18	3452	155	1
18	3453	155	5
18	3454	155	4
18	3455	155	3
18	3456	155	2
18	3457	155	1
18	3550	160	4
18	3551	160	1
18	3552	160	5
18	3553	160	4
18	3554	160	3
18	3555	160	2
18	3556	160	1
18	3557	160	4
18	3558	160	4
18	3559	160	2
18	3560	160	4
18	3561	160	2
18	3562	160	4
18	3563	160	0
18	3564	160	5
18	3565	160	4
18	3566	160	3
18	3567	160	2
18	3568	160	1
18	3569	160	4
18	3570	160	2
18	3571	160	5
18	3572	160	4
18	3573	160	3
18	3574	160	2
18	3575	160	1
18	3657	165	3
18	3658	165	5
18	3659	165	4
18	3660	165	3
18	3661	165	2
18	3662	165	1
18	3663	165	5
18	3664	165	1
18	3665	165	5
18	3666	165	3
18	3667	165	1
18	3668	165	5
18	3669	165	3
18	3670	165	1
18	3671	165	3
18	3672	165	5
18	3673	165	4
18	3674	165	3
18	3675	165	2
18	3676	165	1
18	3677	165	5
18	3678	165	3
18	3679	165	1
18	3680	165	5
18	3681	165	4
18	3682	165	3
18	3683	165	2
18	3684	165	1
18	3773	170	5
18	3774	170	2
18	3775	170	5
18	3776	170	4
18	3777	170	3
18	3778	170	2
18	3779	170	1
18	3780	170	2
18	3781	170	4
18	3782	170	2
18	3783	170	4
18	3784	170	2
18	3785	170	2
18	3786	170	2
18	3787	170	5
18	3788	170	4
18	3789	170	3
18	3790	170	2
18	3791	170	1
18	3792	170	4
18	3793	170	2
18	3794	170	5
18	3795	170	4
18	3796	170	3
18	3797	170	2
18	3798	170	1
18	3880	175	4
18	3881	175	1
18	3882	175	5
18	3883	175	4
18	3884	175	3
18	3885	175	2
18	3886	175	1
18	3887	175	3
18	3888	175	5
18	3889	175	3
18	3890	175	1
18	3891	175	5
18	3892	175	3
18	3893	175	1
18	3894	175	1
18	3895	175	5
18	3896	175	4
18	3897	175	3
18	3898	175	2
18	3899	175	1
18	3900	175	5
18	3901	175	3
18	3902	175	1
18	3903	175	5
18	3904	175	4
18	3905	175	3
18	3906	175	2
18	3907	175	1
18	4000	180	3
18	4001	180	5
18	4002	180	4
18	4003	180	3
18	4004	180	2
18	4005	180	1
18	4006	180	4
18	4007	180	4
18	4008	180	2
18	4009	180	4
18	4010	180	2
18	4011	180	0
18	4012	180	4
18	4013	180	5
18	4014	180	4
18	4015	180	3
18	4016	180	2
18	4017	180	1
18	4018	180	4
18	4019	180	2
18	4020	180	5
18	4021	180	4
18	4022	180	3
18	4023	180	2
18	4024	180	1
18	4104	185	5
18	4105	185	2
18	4106	185	5
18	4107	185	4
18	4108	185	3
18	4109	185	2
18	4110	185	1
18	4111	185	5
18	4112	185	1
18	4113	185	5
18	4114	185	3
18	4115	185	1
18	4116	185	5
18	4117	185	3
18	4118	185	1
18	4119	185	1
18	4120	185	5
18	4121	185	4
18	4122	185	3
18	4123	185	2
18	4124	185	1
18	4125	185	5
18	4126	185	3
18	4127	185	1
18	4128	185	5
18	4129	185	4
18	4130	185	3
18	4131	185	2
18	4132	185	1
18	4220	190	4
18	4221	190	1
18	4222	190	5
18	4223	190	4
18	4224	190	3
18	4225	190	2
18	4226	190	1
18	4227	190	2
18	4228	190	4
18	4229	190	2
18	4230	190	4
18	4231	190	2
18	4232	190	4
18	4233	190	5
18	4234	190	4
18	4235	190	3
18	4236	190	2
18	4237	190	1
18	4238	190	4
18	4239	190	2
18	4240	190	5
18	4241	190	4
18	4242	190	3
18	4243	190	2
18	4244	190	1
18	4329	195	3
18	4330	195	5
18	4331	195	4
18	4332	195	3
18	4333	195	2
18	4334	195	1
18	4335	195	3
18	4336	195	5
18	4337	195	3
18	4338	195	1
18	4339	195	5
18	4340	195	3
18	4341	195	1
18	4342	195	3
18	4343	195	3
18	4344	195	5
18	4345	195	4
18	4346	195	3
18	4347	195	2
18	4348	195	1
18	4349	195	5
18	4350	195	3
18	4351	195	1
18	4352	195	5
18	4353	195	4
18	4354	195	3
18	4355	195	2
18	4356	195	1
18	4447	200	5
18	4448	200	2
18	4449	200	5
18	4450	200	4
18	4451	200	3
18	4452	200	2
18	4453	200	1
18	4454	200	4
18	4455	200	4
18	4456	200	2
18	4457	200	4
18	4458	200	2
18	4459	200	2
18	4460	200	0
18	4461	200	5
18	4462	200	4
18	4463	200	3
18	4464	200	2
18	4465	200	1
18	4466	200	4
18	4467	200	2
18	4468	200	5
18	4469	200	4
18	4470	200	3
18	4471	200	2
18	4472	200	1
18	4554	205	4
18	4555	205	1
18	4556	205	5
18	4557	205	4
18	4558	205	3
18	4559	205	2
18	4560	205	1
18	4561	205	5
18	4562	205	1
18	4563	205	5
18	4564	205	3
18	4565	205	1
18	4566	205	5
18	4567	205	3
18	4568	205	1
18	4569	205	1
18	4570	205	5
18	4571	205	4
18	4572	205	3
18	4573	205	2
18	4574	205	1
18	4575	205	5
18	4576	205	3
18	4577	205	1
18	4578	205	5
18	4579	205	4
18	4580	205	3
18	4581	205	2
18	4582	205	1
18	4673	210	3
18	4674	210	5
18	4675	210	4
18	4676	210	3
18	4677	210	2
18	4678	210	1
18	4679	210	2
18	4680	210	4
18	4681	210	2
18	4682	210	4
18	4683	210	2
18	4684	210	0
18	4685	210	2
18	4686	210	5
18	4687	210	4
18	4688	210	3
18	4689	210	2
18	4690	210	1
18	4691	210	4
18	4692	210	2
18	4693	210	5
18	4694	210	4
18	4695	210	3
18	4696	210	2
18	4697	210	1
18	4774	215	5
18	4775	215	2
18	4776	215	5
18	4777	215	4
18	4778	215	3
18	4779	215	2
18	4780	215	1
18	4781	215	3
18	4782	215	5
18	4783	215	3
18	4784	215	1
18	4785	215	5
18	4786	215	3
18	4787	215	1
18	4788	215	5
18	4789	215	4
18	4790	215	3
18	4791	215	2
18	4792	215	1
18	4793	215	5
18	4794	215	3
18	4795	215	1
18	4796	215	5
18	4797	215	4
18	4798	215	3
18	4799	215	2
18	4800	215	1
18	4893	220	4
18	4894	220	1
18	4895	220	5
18	4896	220	4
18	4897	220	3
18	4898	220	2
18	4899	220	1
18	4900	220	4
18	4901	220	4
18	4902	220	2
18	4903	220	4
18	4904	220	2
18	4905	220	4
18	4906	220	4
18	4907	220	5
18	4908	220	4
18	4909	220	3
18	4910	220	2
18	4911	220	1
18	4912	220	4
18	4913	220	2
18	4914	220	5
18	4915	220	4
18	4916	220	3
18	4917	220	2
18	4918	220	1
18	5003	225	3
18	5004	225	5
18	5005	225	4
18	5006	225	3
18	5007	225	2
18	5008	225	1
18	5009	225	5
18	5010	225	1
18	5011	225	5
18	5012	225	3
18	5013	225	1
18	5014	225	5
18	5015	225	3
18	5016	225	1
18	5017	225	3
18	5018	225	1
18	5019	225	5
18	5020	225	4
18	5021	225	3
18	5022	225	2
18	5023	225	1
18	5024	225	5
18	5025	225	3
18	5026	225	1
18	5027	225	5
18	5028	225	4
18	5029	225	3
18	5030	225	2
18	5031	225	1
18	5117	230	5
18	5118	230	2
18	5119	230	5
18	5120	230	4
18	5121	230	3
18	5122	230	2
18	5123	230	1
18	5124	230	2
18	5125	230	4
18	5126	230	2
18	5127	230	4
18	5128	230	2
18	5129	230	2
18	5130	230	5
18	5131	230	4
18	5132	230	3
18	5133	230	2
18	5134	230	1
18	5135	230	4
18	5136	230	2
18	5137	230	5
18	5138	230	4
18	5139	230	3
18	5140	230	2
18	5141	230	1
18	5226	235	4
18	5227	235	1
18	5228	235	5
18	5229	235	4
18	5230	235	3
18	5231	235	2
18	5232	235	1
18	5233	235	3
18	5234	235	5
18	5235	235	3
18	5236	235	1
18	5237	235	5
18	5238	235	3
18	5239	235	1
18	5240	235	1
18	5241	235	3
18	5242	235	5
18	5243	235	4
18	5244	235	3
18	5245	235	2
18	5246	235	1
18	5247	235	5
18	5248	235	3
18	5249	235	1
18	5250	235	5
18	5251	235	4
18	5252	235	3
18	5253	235	2
18	5254	235	1
18	5347	240	3
18	5348	240	5
18	5349	240	4
18	5350	240	3
18	5351	240	2
18	5352	240	1
18	5353	240	4
18	5354	240	4
18	5355	240	2
18	5356	240	4
18	5357	240	2
18	5358	240	0
18	5359	240	0
18	5360	240	5
18	5361	240	4
18	5362	240	3
18	5363	240	2
18	5364	240	1
18	5365	240	4
18	5366	240	2
18	5367	240	5
18	5368	240	4
18	5369	240	3
18	5370	240	2
18	5371	240	1
18	5448	245	5
18	5449	245	2
18	5450	245	5
18	5451	245	4
18	5452	245	3
18	5453	245	2
18	5454	245	1
18	5455	245	5
18	5456	245	1
18	5457	245	5
18	5458	245	3
18	5459	245	1
18	5460	245	5
18	5461	245	3
18	5462	245	1
18	5463	245	5
18	5464	245	4
18	5465	245	3
18	5466	245	2
18	5467	245	1
18	5468	245	5
18	5469	245	3
18	5470	245	1
18	5471	245	5
18	5472	245	4
18	5473	245	3
18	5474	245	2
18	5475	245	1
18	5566	250	4
18	5567	250	1
18	5568	250	5
18	5569	250	4
18	5570	250	3
18	5571	250	2
18	5572	250	1
18	5573	250	2
18	5574	250	4
18	5575	250	2
18	5576	250	4
18	5577	250	2
18	5578	250	4
18	5579	250	2
18	5580	250	5
18	5581	250	4
18	5582	250	3
18	5583	250	2
18	5584	250	1
18	5585	250	4
18	5586	250	2
18	5587	250	5
18	5588	250	4
18	5589	250	3
18	5590	250	2
18	5591	250	1
18	5673	255	3
18	5674	255	5
18	5675	255	4
18	5676	255	3
18	5677	255	2
18	5678	255	1
18	5679	255	3
18	5680	255	5
18	5681	255	3
18	5682	255	1
18	5683	255	5
18	5684	255	3
18	5685	255	1
18	5686	255	3
18	5687	255	5
18	5688	255	4
18	5689	255	3
18	5690	255	2
18	5691	255	1
18	5692	255	5
18	5693	255	3
18	5694	255	1
18	5695	255	5
18	5696	255	4
18	5697	255	3
18	5698	255	2
18	5699	255	1
18	5790	260	5
18	5791	260	2
18	5792	260	5
18	5793	260	4
18	5794	260	3
18	5795	260	2
18	5796	260	1
18	5797	260	4
18	5798	260	4
18	5799	260	2
18	5800	260	4
18	5801	260	2
18	5802	260	2
18	5803	260	4
18	5804	260	5
18	5805	260	4
18	5806	260	3
18	5807	260	2
18	5808	260	1
18	5809	260	4
18	5810	260	2
18	5811	260	5
18	5812	260	4
18	5813	260	3
18	5814	260	2
18	5815	260	1
18	5900	265	4
18	5901	265	1
18	5902	265	5
18	5903	265	4
18	5904	265	3
18	5905	265	2
18	5906	265	1
18	5907	265	5
18	5908	265	1
18	5909	265	5
18	5910	265	3
18	5911	265	1
18	5912	265	5
18	5913	265	3
18	5914	265	1
18	5915	265	1
18	5916	265	1
18	5917	265	5
18	5918	265	4
18	5919	265	3
18	5920	265	2
18	5921	265	1
18	5922	265	5
18	5923	265	3
18	5924	265	1
18	5925	265	5
18	5926	265	4
18	5927	265	3
18	5928	265	2
18	5929	265	1
18	6017	270	3
18	6018	270	5
18	6019	270	4
18	6020	270	3
18	6021	270	2
18	6022	270	1
18	6023	270	2
18	6024	270	4
18	6025	270	2
18	6026	270	4
18	6027	270	2
18	6028	270	0
18	6029	270	5
18	6030	270	4
18	6031	270	3
18	6032	270	2
18	6033	270	1
18	6034	270	4
18	6035	270	2
18	6036	270	5
18	6037	270	4
18	6038	270	3
18	6039	270	2
18	6040	270	1
18	6120	275	5
18	6121	275	2
18	6122	275	5
18	6123	275	4
18	6124	275	3
18	6125	275	2
18	6126	275	1
18	6127	275	3
18	6128	275	5
18	6129	275	3
18	6130	275	1
18	6131	275	5
18	6132	275	3
18	6133	275	1
18	6134	275	3
18	6135	275	5
18	6136	275	4
18	6137	275	3
18	6138	275	2
18	6139	275	1
18	6140	275	5
18	6141	275	3
18	6142	275	1
18	6143	275	5
18	6144	275	4
18	6145	275	3
18	6146	275	2
18	6147	275	1
18	6240	280	4
18	6241	280	1
18	6242	280	5
18	6243	280	4
18	6244	280	3
18	6245	280	2
18	6246	280	1
18	6247	280	4
18	6248	280	4
18	6249	280	2
18	6250	280	4
18	6251	280	2
18	6252	280	4
18	6253	280	0
18	6254	280	5
18	6255	280	4
18	6256	280	3
18	6257	280	2
18	6258	280	1
18	6259	280	4
18	6260	280	2
18	6261	280	5
18	6262	280	4
18	6263	280	3
18	6264	280	2
18	6265	280	1
18	6347	285	3
18	6348	285	5
18	6349	285	4
18	6350	285	3
18	6351	285	2
18	6352	285	1
18	6353	285	5
18	6354	285	1
18	6355	285	5
18	6356	285	3
18	6357	285	1
18	6358	285	5
18	6359	285	3
18	6360	285	1
18	6361	285	3
18	6362	285	5
18	6363	285	4
18	6364	285	3
18	6365	285	2
18	6366	285	1
18	6367	285	5
18	6368	285	3
18	6369	285	1
18	6370	285	5
18	6371	285	4
18	6372	285	3
18	6373	285	2
18	6374	285	1
18	6463	290	5
18	6464	290	2
18	6465	290	5
18	6466	290	4
18	6467	290	3
18	6468	290	2
18	6469	290	1
18	6470	290	2
18	6471	290	4
18	6472	290	2
18	6473	290	4
18	6474	290	2
18	6475	290	2
18	6476	290	2
18	6477	290	5
18	6478	290	4
18	6479	290	3
18	6480	290	2
18	6481	290	1
18	6482	290	4
18	6483	290	2
18	6484	290	5
18	6485	290	4
18	6486	290	3
18	6487	290	2
18	6488	290	1
18	6570	295	4
18	6571	295	1
18	6572	295	5
18	6573	295	4
18	6574	295	3
18	6575	295	2
18	6576	295	1
18	6577	295	3
18	6578	295	5
18	6579	295	3
18	6580	295	1
18	6581	295	5
18	6582	295	3
18	6583	295	1
18	6584	295	1
18	6585	295	5
18	6586	295	4
18	6587	295	3
18	6588	295	2
18	6589	295	1
18	6590	295	5
18	6591	295	3
18	6592	295	1
18	6593	295	5
18	6594	295	4
18	6595	295	3
18	6596	295	2
18	6597	295	1
19	175	10	0
19	288	15	0
19	404	20	0
19	514	25	0
19	632	30	0
19	854	40	0
19	962	45	0
19	1077	50	0
19	1185	55	0
19	1304	60	0
19	1525	70	0
19	1633	75	0
19	1751	80	0
19	1859	85	0
19	1977	90	0
19	2197	100	0
19	2307	105	0
19	2422	110	0
19	2530	115	0
19	2651	120	0
19	2870	130	0
19	2978	135	0
19	3094	140	0
19	3204	145	0
19	3322	150	0
19	3544	160	0
19	3652	165	0
19	3767	170	0
19	3875	175	0
19	3994	180	0
19	4215	190	0
19	4323	195	0
19	4441	200	0
19	4549	205	0
19	4667	210	0
19	4887	220	0
19	4997	225	0
19	5112	230	0
19	5220	235	0
19	5341	240	0
19	5560	250	0
19	5668	255	0
19	5784	260	0
19	5894	265	0
19	6012	270	0
19	6234	280	0
19	6342	285	0
19	6457	290	0
19	6565	295	0
20	176	10	0
20	405	20	0
20	515	25	0
20	735	35	0
20	855	40	0
20	1078	50	0
20	1305	60	0
20	1409	65	0
20	1634	75	0
20	1752	80	0
20	1978	90	0
20	2198	100	0
20	2308	105	0
20	2531	115	0
20	2652	120	0
20	2871	130	0
20	3095	140	0
20	3205	145	0
20	3425	155	0
20	3545	160	0
20	3768	170	0
20	3995	180	0
20	4099	185	0
20	4324	195	0
20	4442	200	0
20	4668	210	0
20	4888	220	0
20	4998	225	0
20	5221	235	0
20	5342	240	0
20	5561	250	0
20	5785	260	0
20	5895	265	0
20	6115	275	0
20	6235	280	0
20	6458	290	0

