version 2
run _10UsersSetupWRR-0-20201129-20:07:15-24752
attr configname _10UsersSetupWRR
attr datetime 20201129-20:07:15
attr experiment _10UsersSetupWRR
attr inifile omnetpp.ini
attr iterationvars ""
attr iterationvarsf ""
attr measurement ""
attr network Network
attr processid 24752
attr repetition 0
attr replication #0
attr resultdir results
attr runnumber 0
attr seedset 0
param **.algorithm "\"wrr\""
param **.usersCount 10
param **.channelsCount 25
param **.networkLoad 0.9
param **.scheduler.generateInterval 1ms
param **.gen.generateInterval "triang(0.9ms, 1.0ms, 1.1ms)"
param **.user[0].radioLinkQuality 1
param **.user[1].radioLinkQuality 2
param **.user[2].radioLinkQuality 3
param **.user[3].radioLinkQuality 4
param **.user[4].radioLinkQuality 5
param **.user[5].radioLinkQuality 6
param **.user[6].radioLinkQuality 7
param **.user[7].radioLinkQuality 8
param **.user[8].radioLinkQuality 9
param **.user[9].radioLinkQuality 10
param **.user[0].gen.startingMessage 0
param **.user[1].gen.startingMessage 100
param **.user[2].gen.startingMessage 200
param **.user[3].gen.startingMessage 300
param **.user[4].gen.startingMessage 400
param **.user[5].gen.startingMessage 500
param **.user[6].gen.startingMessage 600
param **.user[7].gen.startingMessage 700
param **.user[8].gen.startingMessage 800
param **.user[9].gen.startingMessage 900

vector 0 Network.user[0].queue "Queue before scheduler's run." ETV
vector 1 Network.user[1].queue "Queue before scheduler's run." ETV
vector 2 Network.user[2].queue "Queue before scheduler's run." ETV
vector 3 Network.user[3].queue "Queue before scheduler's run." ETV
vector 4 Network.user[4].queue "Queue before scheduler's run." ETV
vector 5 Network.user[5].queue "Queue before scheduler's run." ETV
vector 6 Network.user[6].queue "Queue before scheduler's run." ETV
vector 7 Network.user[7].queue "Queue before scheduler's run." ETV
vector 8 Network.user[8].queue "Queue before scheduler's run." ETV
vector 9 Network.user[9].queue "Queue before scheduler's run." ETV
vector 10 Network.scheduler "Scheduler free channels" ETV
vector 11 Network.scheduler "Total users' queues lengths" ETV
vector 12 Network.user[0].queue "Queue after scheduler's run." ETV
vector 13 Network.user[1].queue "Queue after scheduler's run." ETV
vector 14 Network.user[2].queue "Queue after scheduler's run." ETV
vector 15 Network.user[3].queue "Queue after scheduler's run." ETV
vector 16 Network.user[4].queue "Queue after scheduler's run." ETV
vector 17 Network.user[5].queue "Queue after scheduler's run." ETV
vector 18 Network.user[6].queue "Queue after scheduler's run." ETV
vector 19 Network.user[7].queue "Queue after scheduler's run." ETV
vector 20 Network.user[8].queue "Queue after scheduler's run." ETV
vector 21 Network.user[9].queue "Queue after scheduler's run." ETV
vector 22 Network.sink lifetime:vector ETV
attr interpolationmode none
attr title "lifetime of arrived jobs, vector"
attr unit s
0	42	0.001	2
0	134	0.002	2
0	226	0.003	2
0	320	0.004	2
0	423	0.005	3
0	524	0.006	2
0	623	0.007	2
0	720	0.008	2
0	821	0.009	3
0	921	0.01	2
0	1016	0.011	2
0	1111	0.012	2
0	1210	0.013	3
0	1316	0.014	2
0	1416	0.015	2
0	1511	0.016	2
0	1608	0.017	3
0	1707	0.018	2
0	1806	0.019	2
0	1904	0.02	2
0	2006	0.021	3
0	2105	0.022	2
0	2205	0.023	2
0	2300	0.024	2
0	2392	0.025	2
0	2492	0.026	3
0	2599	0.027	2
0	2699	0.028	2
0	2792	0.029	2
0	2890	0.03	3
0	2992	0.031	2
0	3090	0.032	2
0	3187	0.033	2
0	3289	0.034	3
0	3386	0.035	2
0	3484	0.036	2
0	3582	0.037	2
0	3681	0.038	3
0	3779	0.039	2
0	3878	0.04	2
0	3980	0.041	2
0	4081	0.042	3
0	4177	0.043	2
0	4271	0.044	2
0	4369	0.045	2
0	4473	0.046	2
0	4574	0.047	3
0	4669	0.048	2
0	4767	0.049	2
0	4865	0.05	2
0	4964	0.051	3
0	5062	0.052	2
0	5161	0.053	2
0	5261	0.054	2
0	5361	0.055	3
0	5459	0.056	2
0	5556	0.057	2
0	5653	0.058	2
0	5756	0.059	3
0	5856	0.06	2
0	5951	0.061	2
0	6050	0.062	2
0	6150	0.063	3
0	6249	0.064	2
0	6345	0.065	2
0	6442	0.066	2
0	6545	0.067	2
0	6647	0.068	3
0	6743	0.069	2
0	6835	0.07	2
0	6935	0.071	2
0	7040	0.072	3
0	7139	0.073	2
0	7234	0.074	2
0	7331	0.075	2
0	7432	0.076	3
0	7530	0.077	2
0	7627	0.078	2
0	7727	0.079	2
0	7829	0.08	3
0	7927	0.081	2
0	8024	0.082	2
0	8120	0.083	2
0	8221	0.084	3
0	8323	0.085	2
0	8419	0.086	2
0	8518	0.087	2
0	8619	0.088	3
0	8718	0.089	2
0	8813	0.09	2
0	8910	0.091	2
0	9010	0.092	2
0	9111	0.093	3
0	9212	0.094	2
0	9306	0.095	2
0	9402	0.096	2
0	9504	0.097	3
0	9608	0.098	2
0	9703	0.099	2
0	9797	0.1	2
0	9900	0.101	3
1	43	0.001	2
1	135	0.002	2
1	227	0.003	2
1	321	0.004	2
1	424	0.005	3
1	525	0.006	2
1	624	0.007	2
1	721	0.008	2
1	822	0.009	3
1	922	0.01	2
1	1017	0.011	2
1	1112	0.012	2
1	1211	0.013	2
1	1317	0.014	3
1	1417	0.015	2
1	1512	0.016	2
1	1609	0.017	2
1	1708	0.018	3
1	1807	0.019	2
1	1905	0.02	2
1	2007	0.021	2
1	2106	0.022	3
1	2206	0.023	2
1	2301	0.024	2
1	2393	0.025	2
1	2493	0.026	2
1	2600	0.027	3
1	2700	0.028	2
1	2793	0.029	2
1	2891	0.03	2
1	2993	0.031	3
1	3091	0.032	2
1	3188	0.033	2
1	3290	0.034	2
1	3387	0.035	2
1	3485	0.036	3
1	3583	0.037	2
1	3682	0.038	2
1	3780	0.039	2
1	3879	0.04	3
1	3981	0.041	2
1	4082	0.042	2
1	4178	0.043	2
1	4272	0.044	3
1	4370	0.045	2
1	4474	0.046	2
1	4575	0.047	2
1	4670	0.048	2
1	4768	0.049	3
1	4866	0.05	2
1	4965	0.051	2
1	5063	0.052	2
1	5162	0.053	3
1	5262	0.054	2
1	5362	0.055	2
1	5460	0.056	2
1	5557	0.057	3
1	5654	0.058	2
1	5757	0.059	2
1	5857	0.06	2
1	5952	0.061	2
1	6051	0.062	3
1	6151	0.063	2
1	6250	0.064	2
1	6346	0.065	2
1	6443	0.066	3
1	6546	0.067	2
1	6648	0.068	2
1	6744	0.069	2
1	6836	0.07	2
1	6936	0.071	3
1	7041	0.072	2
1	7140	0.073	2
1	7235	0.074	2
1	7332	0.075	3
1	7433	0.076	2
1	7531	0.077	2
1	7628	0.078	2
1	7728	0.079	3
1	7830	0.08	2
1	7928	0.081	2
1	8025	0.082	2
1	8121	0.083	2
1	8222	0.084	3
1	8324	0.085	2
1	8420	0.086	2
1	8519	0.087	2
1	8620	0.088	3
1	8719	0.089	2
1	8814	0.09	2
1	8911	0.091	2
1	9011	0.092	2
1	9112	0.093	3
1	9213	0.094	2
1	9307	0.095	2
1	9403	0.096	2
1	9505	0.097	3
1	9609	0.098	2
1	9704	0.099	2
1	9798	0.1	2
1	9901	0.101	3
2	44	0.001	2
2	136	0.002	2
2	228	0.003	2
2	322	0.004	2
2	425	0.005	2
2	526	0.006	3
2	625	0.007	2
2	722	0.008	2
2	823	0.009	2
2	923	0.01	2
2	1018	0.011	3
2	1113	0.012	2
2	1212	0.013	2
2	1318	0.014	2
2	1418	0.015	2
2	1513	0.016	3
2	1610	0.017	2
2	1709	0.018	2
2	1808	0.019	2
2	1906	0.02	2
2	2008	0.021	3
2	2107	0.022	2
2	2207	0.023	2
2	2302	0.024	2
2	2394	0.025	2
2	2494	0.026	3
2	2601	0.027	2
2	2701	0.028	2
2	2794	0.029	2
2	2892	0.03	2
2	2994	0.031	3
2	3092	0.032	2
2	3189	0.033	2
2	3291	0.034	2
2	3388	0.035	2
2	3486	0.036	3
2	3584	0.037	2
2	3683	0.038	2
2	3781	0.039	2
2	3880	0.04	2
2	3982	0.041	3
2	4083	0.042	2
2	4179	0.043	2
2	4273	0.044	2
2	4371	0.045	2
2	4475	0.046	3
2	4576	0.047	2
2	4671	0.048	2
2	4769	0.049	2
2	4867	0.05	2
2	4966	0.051	3
2	5064	0.052	2
2	5163	0.053	2
2	5263	0.054	2
2	5363	0.055	2
2	5461	0.056	2
2	5558	0.057	3
2	5655	0.058	2
2	5758	0.059	2
2	5858	0.06	2
2	5953	0.061	2
2	6052	0.062	3
2	6152	0.063	2
2	6251	0.064	2
2	6347	0.065	2
2	6444	0.066	2
2	6547	0.067	3
2	6649	0.068	2
2	6745	0.069	2
2	6837	0.07	2
2	6937	0.071	2
2	7042	0.072	3
2	7141	0.073	2
2	7236	0.074	2
2	7333	0.075	2
2	7434	0.076	2
2	7532	0.077	3
2	7629	0.078	2
2	7729	0.079	2
2	7831	0.08	2
2	7929	0.081	2
2	8026	0.082	3
2	8122	0.083	2
2	8223	0.084	2
2	8325	0.085	2
2	8421	0.086	2
2	8520	0.087	3
2	8621	0.088	2
2	8720	0.089	2
2	8815	0.09	2
2	8912	0.091	2
2	9012	0.092	3
2	9113	0.093	2
2	9214	0.094	2
2	9308	0.095	2
2	9404	0.096	2
2	9506	0.097	3
2	9610	0.098	2
2	9705	0.099	2
2	9799	0.1	2
2	9902	0.101	2
3	45	0.001	2
3	137	0.002	2
3	229	0.003	2
3	323	0.004	2
3	426	0.005	2
3	527	0.006	2
3	626	0.007	3
3	723	0.008	2
3	824	0.009	2
3	924	0.01	2
3	1019	0.011	2
3	1114	0.012	2
3	1213	0.013	3
3	1319	0.014	2
3	1419	0.015	2
3	1514	0.016	2
3	1611	0.017	2
3	1710	0.018	2
3	1809	0.019	2
3	1907	0.02	3
3	2009	0.021	2
3	2108	0.022	2
3	2208	0.023	2
3	2303	0.024	2
3	2395	0.025	2
3	2495	0.026	3
3	2602	0.027	2
3	2702	0.028	2
3	2795	0.029	2
3	2893	0.03	2
3	2995	0.031	2
3	3093	0.032	2
3	3190	0.033	3
3	3292	0.034	2
3	3389	0.035	2
3	3487	0.036	2
3	3585	0.037	2
3	3684	0.038	2
3	3782	0.039	3
3	3881	0.04	2
3	3983	0.041	2
3	4084	0.042	2
3	4180	0.043	2
3	4274	0.044	2
3	4372	0.045	2
3	4476	0.046	3
3	4577	0.047	2
3	4672	0.048	2
3	4770	0.049	2
3	4868	0.05	2
3	4967	0.051	2
3	5065	0.052	3
3	5164	0.053	2
3	5264	0.054	2
3	5364	0.055	2
3	5462	0.056	2
3	5559	0.057	2
3	5656	0.058	2
3	5759	0.059	3
3	5859	0.06	2
3	5954	0.061	2
3	6053	0.062	2
3	6153	0.063	2
3	6252	0.064	2
3	6348	0.065	3
3	6445	0.066	2
3	6548	0.067	2
3	6650	0.068	2
3	6746	0.069	2
3	6838	0.07	2
3	6938	0.071	2
3	7043	0.072	3
3	7142	0.073	2
3	7237	0.074	2
3	7334	0.075	2
3	7435	0.076	2
3	7533	0.077	2
3	7630	0.078	3
3	7730	0.079	2
3	7832	0.08	2
3	7930	0.081	2
3	8027	0.082	2
3	8123	0.083	2
3	8224	0.084	3
3	8326	0.085	2
3	8422	0.086	2
3	8521	0.087	2
3	8622	0.088	2
3	8721	0.089	2
3	8816	0.09	2
3	8913	0.091	3
3	9013	0.092	2
3	9114	0.093	2
3	9215	0.094	2
3	9309	0.095	2
3	9405	0.096	2
3	9507	0.097	3
3	9611	0.098	2
3	9706	0.099	2
3	9800	0.1	2
3	9903	0.101	2
4	46	0.001	2
4	138	0.002	2
4	230	0.003	2
4	324	0.004	2
4	427	0.005	3
4	528	0.006	2
4	627	0.007	2
4	724	0.008	2
4	825	0.009	3
4	925	0.01	2
4	1020	0.011	2
4	1115	0.012	2
4	1214	0.013	2
4	1320	0.014	3
4	1420	0.015	2
4	1515	0.016	2
4	1612	0.017	2
4	1711	0.018	3
4	1810	0.019	2
4	1908	0.02	2
4	2010	0.021	2
4	2109	0.022	2
4	2209	0.023	3
4	2304	0.024	2
4	2396	0.025	2
4	2496	0.026	2
4	2603	0.027	3
4	2703	0.028	2
4	2796	0.029	2
4	2894	0.03	2
4	2996	0.031	3
4	3094	0.032	2
4	3191	0.033	2
4	3293	0.034	2
4	3390	0.035	2
4	3488	0.036	3
4	3586	0.037	2
4	3685	0.038	2
4	3783	0.039	2
4	3882	0.04	3
4	3984	0.041	2
4	4085	0.042	2
4	4181	0.043	2
4	4275	0.044	2
4	4373	0.045	3
4	4477	0.046	2
4	4578	0.047	2
4	4673	0.048	2
4	4771	0.049	3
4	4869	0.05	2
4	4968	0.051	2
4	5066	0.052	2
4	5165	0.053	2
4	5265	0.054	3
4	5365	0.055	2
4	5463	0.056	2
4	5560	0.057	2
4	5657	0.058	3
4	5760	0.059	2
4	5860	0.06	2
4	5955	0.061	2
4	6054	0.062	3
4	6154	0.063	2
4	6253	0.064	2
4	6349	0.065	2
4	6446	0.066	2
4	6549	0.067	3
4	6651	0.068	2
4	6747	0.069	2
4	6839	0.07	2
4	6939	0.071	3
4	7044	0.072	2
4	7143	0.073	2
4	7238	0.074	2
4	7335	0.075	2
4	7436	0.076	3
4	7534	0.077	2
4	7631	0.078	2
4	7731	0.079	2
4	7833	0.08	3
4	7931	0.081	2
4	8028	0.082	2
4	8124	0.083	2
4	8225	0.084	2
4	8327	0.085	3
4	8423	0.086	2
4	8522	0.087	2
4	8623	0.088	2
4	8722	0.089	3
4	8817	0.09	2
4	8914	0.091	2
4	9014	0.092	2
4	9115	0.093	3
4	9216	0.094	2
4	9310	0.095	2
4	9406	0.096	2
4	9508	0.097	2
4	9612	0.098	3
4	9707	0.099	2
4	9801	0.1	2
4	9904	0.101	2
5	47	0.001	2
5	139	0.002	2
5	231	0.003	2
5	325	0.004	2
5	428	0.005	2
5	529	0.006	2
5	628	0.007	3
5	725	0.008	2
5	826	0.009	2
5	926	0.01	2
5	1021	0.011	2
5	1116	0.012	2
5	1215	0.013	2
5	1321	0.014	3
5	1421	0.015	2
5	1516	0.016	2
5	1613	0.017	2
5	1712	0.018	2
5	1811	0.019	2
5	1909	0.02	2
5	2011	0.021	3
5	2110	0.022	2
5	2210	0.023	2
5	2305	0.024	2
5	2397	0.025	2
5	2497	0.026	2
5	2604	0.027	3
5	2704	0.028	2
5	2797	0.029	2
5	2895	0.03	2
5	2997	0.031	2
5	3095	0.032	2
5	3192	0.033	2
5	3294	0.034	3
5	3391	0.035	2
5	3489	0.036	2
5	3587	0.037	2
5	3686	0.038	2
5	3784	0.039	2
5	3883	0.04	2
5	3985	0.041	3
5	4086	0.042	2
5	4182	0.043	2
5	4276	0.044	2
5	4374	0.045	2
5	4478	0.046	2
5	4579	0.047	3
5	4674	0.048	2
5	4772	0.049	2
5	4870	0.05	2
5	4969	0.051	2
5	5067	0.052	2
5	5166	0.053	2
5	5266	0.054	3
5	5366	0.055	2
5	5464	0.056	2
5	5561	0.057	2
5	5658	0.058	2
5	5761	0.059	2
5	5861	0.06	2
5	5956	0.061	3
5	6055	0.062	2
5	6155	0.063	2
5	6254	0.064	2
5	6350	0.065	2
5	6447	0.066	2
5	6550	0.067	3
5	6652	0.068	2
5	6748	0.069	2
5	6840	0.07	2
5	6940	0.071	2
5	7045	0.072	2
5	7144	0.073	2
5	7239	0.074	3
5	7336	0.075	2
5	7437	0.076	2
5	7535	0.077	2
5	7632	0.078	2
5	7732	0.079	2
5	7834	0.08	2
5	7932	0.081	3
5	8029	0.082	2
5	8125	0.083	2
5	8226	0.084	2
5	8328	0.085	2
5	8424	0.086	2
5	8523	0.087	3
5	8624	0.088	2
5	8723	0.089	2
5	8818	0.09	2
5	8915	0.091	2
5	9015	0.092	2
5	9116	0.093	2
5	9217	0.094	3
5	9311	0.095	2
5	9407	0.096	2
5	9509	0.097	2
5	9613	0.098	2
5	9708	0.099	2
5	9802	0.1	2
5	9905	0.101	3
6	48	0.001	2
6	140	0.002	2
6	232	0.003	2
6	326	0.004	2
6	429	0.005	3
6	530	0.006	2
6	629	0.007	2
6	726	0.008	2
6	827	0.009	3
6	927	0.01	2
6	1022	0.011	2
6	1117	0.012	2
6	1216	0.013	3
6	1322	0.014	2
6	1422	0.015	2
6	1517	0.016	2
6	1614	0.017	3
6	1713	0.018	2
6	1812	0.019	2
6	1910	0.02	2
6	2012	0.021	3
6	2111	0.022	2
6	2211	0.023	2
6	2306	0.024	2
6	2398	0.025	2
6	2498	0.026	3
6	2605	0.027	2
6	2705	0.028	2
6	2798	0.029	2
6	2896	0.03	3
6	2998	0.031	2
6	3096	0.032	2
6	3193	0.033	2
6	3295	0.034	3
6	3392	0.035	2
6	3490	0.036	2
6	3588	0.037	2
6	3687	0.038	3
6	3785	0.039	2
6	3884	0.04	2
6	3986	0.041	2
6	4087	0.042	3
6	4183	0.043	2
6	4277	0.044	2
6	4375	0.045	2
6	4479	0.046	3
6	4580	0.047	2
6	4675	0.048	2
6	4773	0.049	2
6	4871	0.05	2
6	4970	0.051	3
6	5068	0.052	2
6	5167	0.053	2
6	5267	0.054	2
6	5367	0.055	3
6	5465	0.056	2
6	5562	0.057	2
6	5659	0.058	2
6	5762	0.059	3
6	5862	0.06	2
6	5957	0.061	2
6	6056	0.062	2
6	6156	0.063	3
6	6255	0.064	2
6	6351	0.065	2
6	6448	0.066	2
6	6551	0.067	3
6	6653	0.068	2
6	6749	0.069	2
6	6841	0.07	2
6	6941	0.071	3
6	7046	0.072	2
6	7145	0.073	2
6	7240	0.074	2
6	7337	0.075	2
6	7438	0.076	3
6	7536	0.077	2
6	7633	0.078	2
6	7733	0.079	2
6	7835	0.08	3
6	7933	0.081	2
6	8030	0.082	2
6	8126	0.083	2
6	8227	0.084	3
6	8329	0.085	2
6	8425	0.086	2
6	8524	0.087	2
6	8625	0.088	3
6	8724	0.089	2
6	8819	0.09	2
6	8916	0.091	2
6	9016	0.092	3
6	9117	0.093	2
6	9218	0.094	2
6	9312	0.095	2
6	9408	0.096	3
6	9510	0.097	2
6	9614	0.098	2
6	9709	0.099	2
6	9803	0.1	2
6	9906	0.101	3
7	49	0.001	2
7	141	0.002	2
7	233	0.003	2
7	327	0.004	2
7	430	0.005	2
7	531	0.006	2
7	630	0.007	3
7	727	0.008	2
7	828	0.009	2
7	928	0.01	2
7	1023	0.011	2
7	1118	0.012	2
7	1217	0.013	2
7	1323	0.014	3
7	1423	0.015	2
7	1518	0.016	2
7	1615	0.017	2
7	1714	0.018	2
7	1813	0.019	2
7	1911	0.02	3
7	2013	0.021	2
7	2112	0.022	2
7	2212	0.023	2
7	2307	0.024	2
7	2399	0.025	2
7	2499	0.026	2
7	2606	0.027	3
7	2706	0.028	2
7	2799	0.029	2
7	2897	0.03	2
7	2999	0.031	2
7	3097	0.032	2
7	3194	0.033	3
7	3296	0.034	2
7	3393	0.035	2
7	3491	0.036	2
7	3589	0.037	2
7	3688	0.038	2
7	3786	0.039	2
7	3885	0.04	3
7	3987	0.041	2
7	4088	0.042	2
7	4184	0.043	2
7	4278	0.044	2
7	4376	0.045	2
7	4480	0.046	3
7	4581	0.047	2
7	4676	0.048	2
7	4774	0.049	2
7	4872	0.05	2
7	4971	0.051	2
7	5069	0.052	2
7	5168	0.053	3
7	5268	0.054	2
7	5368	0.055	2
7	5466	0.056	2
7	5563	0.057	2
7	5660	0.058	2
7	5763	0.059	3
7	5863	0.06	2
7	5958	0.061	2
7	6057	0.062	2
7	6157	0.063	2
7	6256	0.064	2
7	6352	0.065	2
7	6449	0.066	3
7	6552	0.067	2
7	6654	0.068	2
7	6750	0.069	2
7	6842	0.07	2
7	6942	0.071	2
7	7047	0.072	3
7	7146	0.073	2
7	7241	0.074	2
7	7338	0.075	2
7	7439	0.076	2
7	7537	0.077	2
7	7634	0.078	2
7	7734	0.079	3
7	7836	0.08	2
7	7934	0.081	2
7	8031	0.082	2
7	8127	0.083	2
7	8228	0.084	2
7	8330	0.085	3
7	8426	0.086	2
7	8525	0.087	2
7	8626	0.088	2
7	8725	0.089	2
7	8820	0.09	2
7	8917	0.091	2
7	9017	0.092	3
7	9118	0.093	2
7	9219	0.094	2
7	9313	0.095	2
7	9409	0.096	2
7	9511	0.097	2
7	9615	0.098	3
7	9710	0.099	2
7	9804	0.1	2
7	9907	0.101	2
8	50	0.001	2
8	142	0.002	2
8	234	0.003	2
8	328	0.004	3
8	431	0.005	2
8	532	0.006	2
8	631	0.007	2
8	728	0.008	3
8	829	0.009	2
8	929	0.01	2
8	1024	0.011	2
8	1119	0.012	3
8	1218	0.013	2
8	1324	0.014	2
8	1424	0.015	3
8	1519	0.016	2
8	1616	0.017	2
8	1715	0.018	2
8	1814	0.019	3
8	1912	0.02	2
8	2014	0.021	2
8	2113	0.022	2
8	2213	0.023	3
8	2308	0.024	2
8	2400	0.025	2
8	2500	0.026	2
8	2607	0.027	3
8	2707	0.028	2
8	2800	0.029	2
8	2898	0.03	3
8	3000	0.031	2
8	3098	0.032	2
8	3195	0.033	2
8	3297	0.034	3
8	3394	0.035	2
8	3492	0.036	2
8	3590	0.037	2
8	3689	0.038	3
8	3787	0.039	2
8	3886	0.04	2
8	3988	0.041	2
8	4089	0.042	3
8	4185	0.043	2
8	4279	0.044	2
8	4377	0.045	3
8	4481	0.046	2
8	4582	0.047	2
8	4677	0.048	2
8	4775	0.049	3
8	4873	0.05	2
8	4972	0.051	2
8	5070	0.052	2
8	5169	0.053	3
8	5269	0.054	2
8	5369	0.055	2
8	5467	0.056	3
8	5564	0.057	2
8	5661	0.058	2
8	5764	0.059	2
8	5864	0.06	3
8	5959	0.061	2
8	6058	0.062	2
8	6158	0.063	2
8	6257	0.064	3
8	6353	0.065	2
8	6450	0.066	2
8	6553	0.067	2
8	6655	0.068	3
8	6751	0.069	2
8	6843	0.07	2
8	6943	0.071	3
8	7048	0.072	2
8	7147	0.073	2
8	7242	0.074	2
8	7339	0.075	3
8	7440	0.076	2
8	7538	0.077	2
8	7635	0.078	2
8	7735	0.079	3
8	7837	0.08	2
8	7935	0.081	2
8	8032	0.082	2
8	8128	0.083	3
8	8229	0.084	2
8	8331	0.085	2
8	8427	0.086	3
8	8526	0.087	2
8	8627	0.088	2
8	8726	0.089	2
8	8821	0.09	3
8	8918	0.091	2
8	9018	0.092	2
8	9119	0.093	2
8	9220	0.094	3
8	9314	0.095	2
8	9410	0.096	2
8	9512	0.097	2
8	9616	0.098	3
8	9711	0.099	2
8	9805	0.1	2
8	9908	0.101	3
9	51	0.001	2
9	143	0.002	2
9	235	0.003	2
9	329	0.004	2
9	432	0.005	3
9	533	0.006	2
9	632	0.007	2
9	729	0.008	2
9	830	0.009	2
9	930	0.01	3
9	1025	0.011	2
9	1120	0.012	2
9	1219	0.013	2
9	1325	0.014	3
9	1425	0.015	2
9	1520	0.016	2
9	1617	0.017	2
9	1716	0.018	2
9	1815	0.019	3
9	1913	0.02	2
9	2015	0.021	2
9	2114	0.022	2
9	2214	0.023	3
9	2309	0.024	2
9	2401	0.025	2
9	2501	0.026	2
9	2608	0.027	2
9	2708	0.028	3
9	2801	0.029	2
9	2899	0.03	2
9	3001	0.031	2
9	3099	0.032	3
9	3196	0.033	2
9	3298	0.034	2
9	3395	0.035	2
9	3493	0.036	2
9	3591	0.037	3
9	3690	0.038	2
9	3788	0.039	2
9	3887	0.04	2
9	3989	0.041	3
9	4090	0.042	2
9	4186	0.043	2
9	4280	0.044	2
9	4378	0.045	2
9	4482	0.046	3
9	4583	0.047	2
9	4678	0.048	2
9	4776	0.049	2
9	4874	0.05	3
9	4973	0.051	2
9	5071	0.052	2
9	5170	0.053	2
9	5270	0.054	2
9	5370	0.055	3
9	5468	0.056	2
9	5565	0.057	2
9	5662	0.058	2
9	5765	0.059	3
9	5865	0.06	2
9	5960	0.061	2
9	6059	0.062	2
9	6159	0.063	2
9	6258	0.064	3
9	6354	0.065	2
9	6451	0.066	2
9	6554	0.067	2
9	6656	0.068	3
9	6752	0.069	2
9	6844	0.07	2
9	6944	0.071	2
9	7049	0.072	2
9	7148	0.073	3
9	7243	0.074	2
9	7340	0.075	2
9	7441	0.076	2
9	7539	0.077	2
9	7636	0.078	3
9	7736	0.079	2
9	7838	0.08	2
9	7936	0.081	2
9	8033	0.082	3
9	8129	0.083	2
9	8230	0.084	2
9	8332	0.085	2
9	8428	0.086	2
9	8527	0.087	3
9	8628	0.088	2
9	8727	0.089	2
9	8822	0.09	2
9	8919	0.091	3
9	9019	0.092	2
9	9120	0.093	2
9	9221	0.094	2
9	9315	0.095	2
9	9411	0.096	3
9	9513	0.097	2
9	9617	0.098	2
9	9712	0.099	2
9	9806	0.1	3
9	9909	0.101	2
10	61	0.001	5
10	153	0.002	5
10	245	0.003	5
10	339	0.004	4
10	442	0.005	0
10	543	0.006	4
10	642	0.007	2
10	739	0.008	4
10	840	0.009	1
10	940	0.01	4
10	1035	0.011	4
10	1130	0.012	4
10	1229	0.013	2
10	1335	0.014	0
10	1435	0.015	4
10	1530	0.016	4
10	1627	0.017	3
10	1726	0.018	3
10	1825	0.019	3
10	1923	0.02	3
10	2025	0.021	1
10	2124	0.022	4
10	2224	0.023	2
10	2319	0.024	5
10	2411	0.025	5
10	2511	0.026	1
10	2618	0.027	0
10	2718	0.028	4
10	2811	0.029	5
10	2909	0.03	2
10	3011	0.031	2
10	3109	0.032	4
10	3206	0.033	3
10	3308	0.034	1
10	3405	0.035	5
10	3503	0.036	2
10	3601	0.037	4
10	3700	0.038	2
10	3798	0.039	4
10	3897	0.04	2
10	3999	0.041	2
10	4100	0.042	2
10	4196	0.043	5
10	4290	0.044	4
10	4388	0.045	3
10	4492	0.046	0
10	4593	0.047	3
10	4688	0.048	5
10	4786	0.049	2
10	4884	0.05	4
10	4983	0.051	2
10	5081	0.052	4
10	5180	0.053	2
10	5280	0.054	3
10	5380	0.055	2
10	5478	0.056	4
10	5575	0.057	3
10	5672	0.058	4
10	5775	0.059	0
10	5875	0.06	4
10	5970	0.061	4
10	6069	0.062	2
10	6169	0.063	3
10	6268	0.064	3
10	6364	0.065	4
10	6461	0.066	3
10	6564	0.067	1
10	6666	0.068	2
10	6762	0.069	5
10	6854	0.07	5
10	6954	0.071	1
10	7059	0.072	1
10	7158	0.073	4
10	7253	0.074	4
10	7350	0.075	3
10	7451	0.076	2
10	7549	0.077	4
10	7646	0.078	3
10	7746	0.079	2
10	7848	0.08	2
10	7946	0.081	4
10	8043	0.082	3
10	8139	0.083	4
10	8240	0.084	1
10	8342	0.085	3
10	8438	0.086	4
10	8537	0.087	2
10	8638	0.088	2
10	8737	0.089	4
10	8832	0.09	4
10	8929	0.091	3
10	9029	0.092	2
10	9130	0.093	2
10	9231	0.094	3
10	9325	0.095	5
10	9421	0.096	3
10	9523	0.097	1
10	9627	0.098	2
10	9722	0.099	5
10	9816	0.1	4
10	9919	0.101	0
11	61	0.001	0
11	153	0.002	0
11	245	0.003	0
11	339	0.004	0
11	442	0.005	0
11	543	0.006	0
11	642	0.007	0
11	739	0.008	0
11	840	0.009	0
11	940	0.01	0
11	1035	0.011	0
11	1130	0.012	0
11	1229	0.013	0
11	1335	0.014	0
11	1435	0.015	0
11	1530	0.016	0
11	1627	0.017	0
11	1726	0.018	0
11	1825	0.019	0
11	1923	0.02	0
11	2025	0.021	0
11	2124	0.022	0
11	2224	0.023	0
11	2319	0.024	0
11	2411	0.025	0
11	2511	0.026	0
11	2618	0.027	0
11	2718	0.028	0
11	2811	0.029	0
11	2909	0.03	0
11	3011	0.031	0
11	3109	0.032	0
11	3206	0.033	0
11	3308	0.034	0
11	3405	0.035	0
11	3503	0.036	0
11	3601	0.037	0
11	3700	0.038	0
11	3798	0.039	0
11	3897	0.04	0
11	3999	0.041	0
11	4100	0.042	0
11	4196	0.043	0
11	4290	0.044	0
11	4388	0.045	0
11	4492	0.046	0
11	4593	0.047	0
11	4688	0.048	0
11	4786	0.049	0
11	4884	0.05	0
11	4983	0.051	0
11	5081	0.052	0
11	5180	0.053	0
11	5280	0.054	0
11	5380	0.055	0
11	5478	0.056	0
11	5575	0.057	0
11	5672	0.058	0
11	5775	0.059	0
11	5875	0.06	0
11	5970	0.061	0
11	6069	0.062	0
11	6169	0.063	0
11	6268	0.064	0
11	6364	0.065	0
11	6461	0.066	0
11	6564	0.067	0
11	6666	0.068	0
11	6762	0.069	0
11	6854	0.07	0
11	6954	0.071	0
11	7059	0.072	0
11	7158	0.073	0
11	7253	0.074	0
11	7350	0.075	0
11	7451	0.076	0
11	7549	0.077	0
11	7646	0.078	0
11	7746	0.079	0
11	7848	0.08	0
11	7946	0.081	0
11	8043	0.082	0
11	8139	0.083	0
11	8240	0.084	0
11	8342	0.085	0
11	8438	0.086	0
11	8537	0.087	0
11	8638	0.088	0
11	8737	0.089	0
11	8832	0.09	0
11	8929	0.091	0
11	9029	0.092	0
11	9130	0.093	0
11	9231	0.094	0
11	9325	0.095	0
11	9421	0.096	0
11	9523	0.097	0
11	9627	0.098	0
11	9722	0.099	0
11	9816	0.1	0
11	9919	0.101	0
12	62	0.001	1
12	72	0.001	0
12	163	0.002	1
12	164	0.002	0
12	255	0.003	1
12	256	0.003	0
12	349	0.004	1
12	350	0.004	0
12	452	0.005	2
12	454	0.005	1
12	455	0.005	0
12	553	0.006	1
12	554	0.006	0
12	652	0.007	1
12	653	0.007	0
12	749	0.008	1
12	750	0.008	0
12	850	0.009	2
12	852	0.009	1
12	853	0.009	0
12	950	0.01	1
12	951	0.01	0
12	1045	0.011	1
12	1046	0.011	0
12	1140	0.012	1
12	1141	0.012	0
12	1239	0.013	2
12	1240	0.013	1
12	1241	0.013	0
12	1345	0.014	1
12	1347	0.014	0
12	1445	0.015	1
12	1446	0.015	0
12	1540	0.016	1
12	1541	0.016	0
12	1637	0.017	2
12	1638	0.017	1
12	1639	0.017	0
12	1736	0.018	1
12	1738	0.018	0
12	1835	0.019	1
12	1836	0.019	0
12	1933	0.02	1
12	1934	0.02	0
12	2035	0.021	2
12	2036	0.021	1
12	2037	0.021	0
12	2134	0.022	1
12	2136	0.022	0
12	2234	0.023	1
12	2235	0.023	0
12	2329	0.024	1
12	2330	0.024	0
12	2421	0.025	1
12	2422	0.025	0
12	2521	0.026	2
12	2522	0.026	1
12	2523	0.026	0
12	2628	0.027	1
12	2630	0.027	0
12	2728	0.028	1
12	2729	0.028	0
12	2821	0.029	1
12	2822	0.029	0
12	2919	0.03	2
12	2920	0.03	1
12	2921	0.03	0
12	3021	0.031	1
12	3023	0.031	0
12	3119	0.032	1
12	3120	0.032	0
12	3216	0.033	1
12	3217	0.033	0
12	3318	0.034	2
12	3319	0.034	1
12	3320	0.034	0
12	3415	0.035	1
12	3416	0.035	0
12	3513	0.036	1
12	3515	0.036	0
12	3611	0.037	1
12	3612	0.037	0
12	3710	0.038	2
12	3711	0.038	1
12	3712	0.038	0
12	3808	0.039	1
12	3809	0.039	0
12	3907	0.04	1
12	3909	0.04	0
12	4009	0.041	1
12	4010	0.041	0
12	4110	0.042	2
12	4111	0.042	1
12	4112	0.042	0
12	4206	0.043	1
12	4207	0.043	0
12	4300	0.044	1
12	4302	0.044	0
12	4398	0.045	1
12	4399	0.045	0
12	4502	0.046	1
12	4503	0.046	0
12	4603	0.047	2
12	4604	0.047	1
12	4605	0.047	0
12	4698	0.048	1
12	4699	0.048	0
12	4796	0.049	1
12	4798	0.049	0
12	4894	0.05	1
12	4895	0.05	0
12	4993	0.051	2
12	4994	0.051	1
12	4995	0.051	0
12	5091	0.052	1
12	5092	0.052	0
12	5190	0.053	1
12	5192	0.053	0
12	5290	0.054	1
12	5291	0.054	0
12	5390	0.055	2
12	5391	0.055	1
12	5392	0.055	0
12	5488	0.056	1
12	5489	0.056	0
12	5585	0.057	1
12	5587	0.057	0
12	5682	0.058	1
12	5683	0.058	0
12	5785	0.059	2
12	5786	0.059	1
12	5787	0.059	0
12	5885	0.06	1
12	5886	0.06	0
12	5980	0.061	1
12	5981	0.061	0
12	6079	0.062	1
12	6081	0.062	0
12	6179	0.063	2
12	6180	0.063	1
12	6181	0.063	0
12	6278	0.064	1
12	6279	0.064	0
12	6374	0.065	1
12	6375	0.065	0
12	6471	0.066	1
12	6473	0.066	0
12	6574	0.067	1
12	6575	0.067	0
12	6676	0.068	2
12	6677	0.068	1
12	6678	0.068	0
12	6772	0.069	1
12	6773	0.069	0
12	6864	0.07	1
12	6865	0.07	0
12	6964	0.071	1
12	6966	0.071	0
12	7069	0.072	2
12	7070	0.072	1
12	7071	0.072	0
12	7168	0.073	1
12	7169	0.073	0
12	7263	0.074	1
12	7264	0.074	0
12	7360	0.075	1
12	7362	0.075	0
12	7461	0.076	2
12	7462	0.076	1
12	7463	0.076	0
12	7559	0.077	1
12	7560	0.077	0
12	7656	0.078	1
12	7657	0.078	0
12	7756	0.079	1
12	7758	0.079	0
12	7858	0.08	2
12	7859	0.08	1
12	7860	0.08	0
12	7956	0.081	1
12	7957	0.081	0
12	8053	0.082	1
12	8054	0.082	0
12	8149	0.083	1
12	8150	0.083	0
12	8250	0.084	2
12	8252	0.084	1
12	8253	0.084	0
12	8352	0.085	1
12	8353	0.085	0
12	8448	0.086	1
12	8449	0.086	0
12	8547	0.087	1
12	8548	0.087	0
12	8648	0.088	2
12	8650	0.088	1
12	8651	0.088	0
12	8747	0.089	1
12	8748	0.089	0
12	8842	0.09	1
12	8843	0.09	0
12	8939	0.091	1
12	8940	0.091	0
12	9039	0.092	1
12	9040	0.092	0
12	9140	0.093	2
12	9142	0.093	1
12	9143	0.093	0
12	9241	0.094	1
12	9242	0.094	0
12	9335	0.095	1
12	9336	0.095	0
12	9431	0.096	1
12	9432	0.096	0
12	9533	0.097	2
12	9535	0.097	1
12	9536	0.097	0
12	9637	0.098	1
12	9638	0.098	0
12	9732	0.099	1
12	9733	0.099	0
12	9826	0.1	1
12	9827	0.1	0
12	9929	0.101	2
12	9931	0.101	1
12	9932	0.101	0
13	63	0.001	0
13	154	0.002	0
13	246	0.003	0
13	340	0.004	0
13	443	0.005	1
13	453	0.005	0
13	544	0.006	0
13	643	0.007	0
13	740	0.008	0
13	841	0.009	1
13	851	0.009	0
13	941	0.01	0
13	1036	0.011	0
13	1131	0.012	0
13	1230	0.013	0
13	1336	0.014	1
13	1346	0.014	0
13	1436	0.015	0
13	1531	0.016	0
13	1628	0.017	0
13	1727	0.018	1
13	1737	0.018	0
13	1826	0.019	0
13	1924	0.02	0
13	2026	0.021	0
13	2125	0.022	1
13	2135	0.022	0
13	2225	0.023	0
13	2320	0.024	0
13	2412	0.025	0
13	2512	0.026	0
13	2619	0.027	1
13	2629	0.027	0
13	2719	0.028	0
13	2812	0.029	0
13	2910	0.03	0
13	3012	0.031	1
13	3022	0.031	0
13	3110	0.032	0
13	3207	0.033	0
13	3309	0.034	0
13	3406	0.035	0
13	3504	0.036	1
13	3514	0.036	0
13	3602	0.037	0
13	3701	0.038	0
13	3799	0.039	0
13	3898	0.04	1
13	3908	0.04	0
13	4000	0.041	0
13	4101	0.042	0
13	4197	0.043	0
13	4291	0.044	1
13	4301	0.044	0
13	4389	0.045	0
13	4493	0.046	0
13	4594	0.047	0
13	4689	0.048	0
13	4787	0.049	1
13	4797	0.049	0
13	4885	0.05	0
13	4984	0.051	0
13	5082	0.052	0
13	5181	0.053	1
13	5191	0.053	0
13	5281	0.054	0
13	5381	0.055	0
13	5479	0.056	0
13	5576	0.057	1
13	5586	0.057	0
13	5673	0.058	0
13	5776	0.059	0
13	5876	0.06	0
13	5971	0.061	0
13	6070	0.062	1
13	6080	0.062	0
13	6170	0.063	0
13	6269	0.064	0
13	6365	0.065	0
13	6462	0.066	1
13	6472	0.066	0
13	6565	0.067	0
13	6667	0.068	0
13	6763	0.069	0
13	6855	0.07	0
13	6955	0.071	1
13	6965	0.071	0
13	7060	0.072	0
13	7159	0.073	0
13	7254	0.074	0
13	7351	0.075	1
13	7361	0.075	0
13	7452	0.076	0
13	7550	0.077	0
13	7647	0.078	0
13	7747	0.079	1
13	7757	0.079	0
13	7849	0.08	0
13	7947	0.081	0
13	8044	0.082	0
13	8140	0.083	0
13	8241	0.084	1
13	8251	0.084	0
13	8343	0.085	0
13	8439	0.086	0
13	8538	0.087	0
13	8639	0.088	1
13	8649	0.088	0
13	8738	0.089	0
13	8833	0.09	0
13	8930	0.091	0
13	9030	0.092	0
13	9131	0.093	1
13	9141	0.093	0
13	9232	0.094	0
13	9326	0.095	0
13	9422	0.096	0
13	9524	0.097	1
13	9534	0.097	0
13	9628	0.098	0
13	9723	0.099	0
13	9817	0.1	0
13	9920	0.101	1
13	9930	0.101	0
14	64	0.001	0
14	155	0.002	0
14	247	0.003	0
14	341	0.004	0
14	444	0.005	0
14	545	0.006	0
14	644	0.007	0
14	741	0.008	0
14	842	0.009	0
14	942	0.01	0
14	1037	0.011	0
14	1132	0.012	0
14	1231	0.013	0
14	1337	0.014	0
14	1437	0.015	0
14	1532	0.016	0
14	1629	0.017	0
14	1728	0.018	0
14	1827	0.019	0
14	1925	0.02	0
14	2027	0.021	0
14	2126	0.022	0
14	2226	0.023	0
14	2321	0.024	0
14	2413	0.025	0
14	2513	0.026	0
14	2620	0.027	0
14	2720	0.028	0
14	2813	0.029	0
14	2911	0.03	0
14	3013	0.031	0
14	3111	0.032	0
14	3208	0.033	0
14	3310	0.034	0
14	3407	0.035	0
14	3505	0.036	0
14	3603	0.037	0
14	3702	0.038	0
14	3800	0.039	0
14	3899	0.04	0
14	4001	0.041	0
14	4102	0.042	0
14	4198	0.043	0
14	4292	0.044	0
14	4390	0.045	0
14	4494	0.046	0
14	4595	0.047	0
14	4690	0.048	0
14	4788	0.049	0
14	4886	0.05	0
14	4985	0.051	0
14	5083	0.052	0
14	5182	0.053	0
14	5282	0.054	0
14	5382	0.055	0
14	5480	0.056	0
14	5577	0.057	0
14	5674	0.058	0
14	5777	0.059	0
14	5877	0.06	0
14	5972	0.061	0
14	6071	0.062	0
14	6171	0.063	0
14	6270	0.064	0
14	6366	0.065	0
14	6463	0.066	0
14	6566	0.067	0
14	6668	0.068	0
14	6764	0.069	0
14	6856	0.07	0
14	6956	0.071	0
14	7061	0.072	0
14	7160	0.073	0
14	7255	0.074	0
14	7352	0.075	0
14	7453	0.076	0
14	7551	0.077	0
14	7648	0.078	0
14	7748	0.079	0
14	7850	0.08	0
14	7948	0.081	0
14	8045	0.082	0
14	8141	0.083	0
14	8242	0.084	0
14	8344	0.085	0
14	8440	0.086	0
14	8539	0.087	0
14	8640	0.088	0
14	8739	0.089	0
14	8834	0.09	0
14	8931	0.091	0
14	9031	0.092	0
14	9132	0.093	0
14	9233	0.094	0
14	9327	0.095	0
14	9423	0.096	0
14	9525	0.097	0
14	9629	0.098	0
14	9724	0.099	0
14	9818	0.1	0
14	9921	0.101	0
15	65	0.001	0
15	156	0.002	0
15	248	0.003	0
15	342	0.004	0
15	445	0.005	0
15	546	0.006	0
15	645	0.007	0
15	742	0.008	0
15	843	0.009	0
15	943	0.01	0
15	1038	0.011	0
15	1133	0.012	0
15	1232	0.013	0
15	1338	0.014	0
15	1438	0.015	0
15	1533	0.016	0
15	1630	0.017	0
15	1729	0.018	0
15	1828	0.019	0
15	1926	0.02	0
15	2028	0.021	0
15	2127	0.022	0
15	2227	0.023	0
15	2322	0.024	0
15	2414	0.025	0
15	2514	0.026	0
15	2621	0.027	0
15	2721	0.028	0
15	2814	0.029	0
15	2912	0.03	0
15	3014	0.031	0
15	3112	0.032	0
15	3209	0.033	0
15	3311	0.034	0
15	3408	0.035	0
15	3506	0.036	0
15	3604	0.037	0
15	3703	0.038	0
15	3801	0.039	0
15	3900	0.04	0
15	4002	0.041	0
15	4103	0.042	0
15	4199	0.043	0
15	4293	0.044	0
15	4391	0.045	0
15	4495	0.046	0
15	4596	0.047	0
15	4691	0.048	0
15	4789	0.049	0
15	4887	0.05	0
15	4986	0.051	0
15	5084	0.052	0
15	5183	0.053	0
15	5283	0.054	0
15	5383	0.055	0
15	5481	0.056	0
15	5578	0.057	0
15	5675	0.058	0
15	5778	0.059	0
15	5878	0.06	0
15	5973	0.061	0
15	6072	0.062	0
15	6172	0.063	0
15	6271	0.064	0
15	6367	0.065	0
15	6464	0.066	0
15	6567	0.067	0
15	6669	0.068	0
15	6765	0.069	0
15	6857	0.07	0
15	6957	0.071	0
15	7062	0.072	0
15	7161	0.073	0
15	7256	0.074	0
15	7353	0.075	0
15	7454	0.076	0
15	7552	0.077	0
15	7649	0.078	0
15	7749	0.079	0
15	7851	0.08	0
15	7949	0.081	0
15	8046	0.082	0
15	8142	0.083	0
15	8243	0.084	0
15	8345	0.085	0
15	8441	0.086	0
15	8540	0.087	0
15	8641	0.088	0
15	8740	0.089	0
15	8835	0.09	0
15	8932	0.091	0
15	9032	0.092	0
15	9133	0.093	0
15	9234	0.094	0
15	9328	0.095	0
15	9424	0.096	0
15	9526	0.097	0
15	9630	0.098	0
15	9725	0.099	0
15	9819	0.1	0
15	9922	0.101	0
16	66	0.001	0
16	157	0.002	0
16	249	0.003	0
16	343	0.004	0
16	446	0.005	0
16	547	0.006	0
16	646	0.007	0
16	743	0.008	0
16	844	0.009	0
16	944	0.01	0
16	1039	0.011	0
16	1134	0.012	0
16	1233	0.013	0
16	1339	0.014	0
16	1439	0.015	0
16	1534	0.016	0
16	1631	0.017	0
16	1730	0.018	0
16	1829	0.019	0
16	1927	0.02	0
16	2029	0.021	0
16	2128	0.022	0
16	2228	0.023	0
16	2323	0.024	0
16	2415	0.025	0
16	2515	0.026	0
16	2622	0.027	0
16	2722	0.028	0
16	2815	0.029	0
16	2913	0.03	0
16	3015	0.031	0
16	3113	0.032	0
16	3210	0.033	0
16	3312	0.034	0
16	3409	0.035	0
16	3507	0.036	0
16	3605	0.037	0
16	3704	0.038	0
16	3802	0.039	0
16	3901	0.04	0
16	4003	0.041	0
16	4104	0.042	0
16	4200	0.043	0
16	4294	0.044	0
16	4392	0.045	0
16	4496	0.046	0
16	4597	0.047	0
16	4692	0.048	0
16	4790	0.049	0
16	4888	0.05	0
16	4987	0.051	0
16	5085	0.052	0
16	5184	0.053	0
16	5284	0.054	0
16	5384	0.055	0
16	5482	0.056	0
16	5579	0.057	0
16	5676	0.058	0
16	5779	0.059	0
16	5879	0.06	0
16	5974	0.061	0
16	6073	0.062	0
16	6173	0.063	0
16	6272	0.064	0
16	6368	0.065	0
16	6465	0.066	0
16	6568	0.067	0
16	6670	0.068	0
16	6766	0.069	0
16	6858	0.07	0
16	6958	0.071	0
16	7063	0.072	0
16	7162	0.073	0
16	7257	0.074	0
16	7354	0.075	0
16	7455	0.076	0
16	7553	0.077	0
16	7650	0.078	0
16	7750	0.079	0
16	7852	0.08	0
16	7950	0.081	0
16	8047	0.082	0
16	8143	0.083	0
16	8244	0.084	0
16	8346	0.085	0
16	8442	0.086	0
16	8541	0.087	0
16	8642	0.088	0
16	8741	0.089	0
16	8836	0.09	0
16	8933	0.091	0
16	9033	0.092	0
16	9134	0.093	0
16	9235	0.094	0
16	9329	0.095	0
16	9425	0.096	0
16	9527	0.097	0
16	9631	0.098	0
16	9726	0.099	0
16	9820	0.1	0
16	9923	0.101	0
17	67	0.001	0
17	158	0.002	0
17	250	0.003	0
17	344	0.004	0
17	447	0.005	0
17	548	0.006	0
17	647	0.007	0
17	744	0.008	0
17	845	0.009	0
17	945	0.01	0
17	1040	0.011	0
17	1135	0.012	0
17	1234	0.013	0
17	1340	0.014	0
17	1440	0.015	0
17	1535	0.016	0
17	1632	0.017	0
17	1731	0.018	0
17	1830	0.019	0
17	1928	0.02	0
17	2030	0.021	0
17	2129	0.022	0
17	2229	0.023	0
17	2324	0.024	0
17	2416	0.025	0
17	2516	0.026	0
17	2623	0.027	0
17	2723	0.028	0
17	2816	0.029	0
17	2914	0.03	0
17	3016	0.031	0
17	3114	0.032	0
17	3211	0.033	0
17	3313	0.034	0
17	3410	0.035	0
17	3508	0.036	0
17	3606	0.037	0
17	3705	0.038	0
17	3803	0.039	0
17	3902	0.04	0
17	4004	0.041	0
17	4105	0.042	0
17	4201	0.043	0
17	4295	0.044	0
17	4393	0.045	0
17	4497	0.046	0
17	4598	0.047	0
17	4693	0.048	0
17	4791	0.049	0
17	4889	0.05	0
17	4988	0.051	0
17	5086	0.052	0
17	5185	0.053	0
17	5285	0.054	0
17	5385	0.055	0
17	5483	0.056	0
17	5580	0.057	0
17	5677	0.058	0
17	5780	0.059	0
17	5880	0.06	0
17	5975	0.061	0
17	6074	0.062	0
17	6174	0.063	0
17	6273	0.064	0
17	6369	0.065	0
17	6466	0.066	0
17	6569	0.067	0
17	6671	0.068	0
17	6767	0.069	0
17	6859	0.07	0
17	6959	0.071	0
17	7064	0.072	0
17	7163	0.073	0
17	7258	0.074	0
17	7355	0.075	0
17	7456	0.076	0
17	7554	0.077	0
17	7651	0.078	0
17	7751	0.079	0
17	7853	0.08	0
17	7951	0.081	0
17	8048	0.082	0
17	8144	0.083	0
17	8245	0.084	0
17	8347	0.085	0
17	8443	0.086	0
17	8542	0.087	0
17	8643	0.088	0
17	8742	0.089	0
17	8837	0.09	0
17	8934	0.091	0
17	9034	0.092	0
17	9135	0.093	0
17	9236	0.094	0
17	9330	0.095	0
17	9426	0.096	0
17	9528	0.097	0
17	9632	0.098	0
17	9727	0.099	0
17	9821	0.1	0
17	9924	0.101	0
18	68	0.001	0
18	159	0.002	0
18	251	0.003	0
18	345	0.004	0
18	448	0.005	0
18	549	0.006	0
18	648	0.007	0
18	745	0.008	0
18	846	0.009	0
18	946	0.01	0
18	1041	0.011	0
18	1136	0.012	0
18	1235	0.013	0
18	1341	0.014	0
18	1441	0.015	0
18	1536	0.016	0
18	1633	0.017	0
18	1732	0.018	0
18	1831	0.019	0
18	1929	0.02	0
18	2031	0.021	0
18	2130	0.022	0
18	2230	0.023	0
18	2325	0.024	0
18	2417	0.025	0
18	2517	0.026	0
18	2624	0.027	0
18	2724	0.028	0
18	2817	0.029	0
18	2915	0.03	0
18	3017	0.031	0
18	3115	0.032	0
18	3212	0.033	0
18	3314	0.034	0
18	3411	0.035	0
18	3509	0.036	0
18	3607	0.037	0
18	3706	0.038	0
18	3804	0.039	0
18	3903	0.04	0
18	4005	0.041	0
18	4106	0.042	0
18	4202	0.043	0
18	4296	0.044	0
18	4394	0.045	0
18	4498	0.046	0
18	4599	0.047	0
18	4694	0.048	0
18	4792	0.049	0
18	4890	0.05	0
18	4989	0.051	0
18	5087	0.052	0
18	5186	0.053	0
18	5286	0.054	0
18	5386	0.055	0
18	5484	0.056	0
18	5581	0.057	0
18	5678	0.058	0
18	5781	0.059	0
18	5881	0.06	0
18	5976	0.061	0
18	6075	0.062	0
18	6175	0.063	0
18	6274	0.064	0
18	6370	0.065	0
18	6467	0.066	0
18	6570	0.067	0
18	6672	0.068	0
18	6768	0.069	0
18	6860	0.07	0
18	6960	0.071	0
18	7065	0.072	0
18	7164	0.073	0
18	7259	0.074	0
18	7356	0.075	0
18	7457	0.076	0
18	7555	0.077	0
18	7652	0.078	0
18	7752	0.079	0
18	7854	0.08	0
18	7952	0.081	0
18	8049	0.082	0
18	8145	0.083	0
18	8246	0.084	0
18	8348	0.085	0
18	8444	0.086	0
18	8543	0.087	0
18	8644	0.088	0
18	8743	0.089	0
18	8838	0.09	0
18	8935	0.091	0
18	9035	0.092	0
18	9136	0.093	0
18	9237	0.094	0
18	9331	0.095	0
18	9427	0.096	0
18	9529	0.097	0
18	9633	0.098	0
18	9728	0.099	0
18	9822	0.1	0
18	9925	0.101	0
19	69	0.001	0
19	160	0.002	0
19	252	0.003	0
19	346	0.004	0
19	449	0.005	0
19	550	0.006	0
19	649	0.007	0
19	746	0.008	0
19	847	0.009	0
19	947	0.01	0
19	1042	0.011	0
19	1137	0.012	0
19	1236	0.013	0
19	1342	0.014	0
19	1442	0.015	0
19	1537	0.016	0
19	1634	0.017	0
19	1733	0.018	0
19	1832	0.019	0
19	1930	0.02	0
19	2032	0.021	0
19	2131	0.022	0
19	2231	0.023	0
19	2326	0.024	0
19	2418	0.025	0
19	2518	0.026	0
19	2625	0.027	0
19	2725	0.028	0
19	2818	0.029	0
19	2916	0.03	0
19	3018	0.031	0
19	3116	0.032	0
19	3213	0.033	0
19	3315	0.034	0
19	3412	0.035	0
19	3510	0.036	0
19	3608	0.037	0
19	3707	0.038	0
19	3805	0.039	0
19	3904	0.04	0
19	4006	0.041	0
19	4107	0.042	0
19	4203	0.043	0
19	4297	0.044	0
19	4395	0.045	0
19	4499	0.046	0
19	4600	0.047	0
19	4695	0.048	0
19	4793	0.049	0
19	4891	0.05	0
19	4990	0.051	0
19	5088	0.052	0
19	5187	0.053	0
19	5287	0.054	0
19	5387	0.055	0
19	5485	0.056	0
19	5582	0.057	0
19	5679	0.058	0
19	5782	0.059	0
19	5882	0.06	0
19	5977	0.061	0
19	6076	0.062	0
19	6176	0.063	0
19	6275	0.064	0
19	6371	0.065	0
19	6468	0.066	0
19	6571	0.067	0
19	6673	0.068	0
19	6769	0.069	0
19	6861	0.07	0
19	6961	0.071	0
19	7066	0.072	0
19	7165	0.073	0
19	7260	0.074	0
19	7357	0.075	0
19	7458	0.076	0
19	7556	0.077	0
19	7653	0.078	0
19	7753	0.079	0
19	7855	0.08	0
19	7953	0.081	0
19	8050	0.082	0
19	8146	0.083	0
19	8247	0.084	0
19	8349	0.085	0
19	8445	0.086	0
19	8544	0.087	0
19	8645	0.088	0
19	8744	0.089	0
19	8839	0.09	0
19	8936	0.091	0
19	9036	0.092	0
19	9137	0.093	0
19	9238	0.094	0
19	9332	0.095	0
19	9428	0.096	0
19	9530	0.097	0
19	9634	0.098	0
19	9729	0.099	0
19	9823	0.1	0
19	9926	0.101	0
20	70	0.001	0
20	161	0.002	0
20	253	0.003	0
20	347	0.004	0
20	450	0.005	0
20	551	0.006	0
20	650	0.007	0
20	747	0.008	0
20	848	0.009	0
20	948	0.01	0
20	1043	0.011	0
20	1138	0.012	0
20	1237	0.013	0
20	1343	0.014	0
20	1443	0.015	0
20	1538	0.016	0
20	1635	0.017	0
20	1734	0.018	0
20	1833	0.019	0
20	1931	0.02	0
20	2033	0.021	0
20	2132	0.022	0
20	2232	0.023	0
20	2327	0.024	0
20	2419	0.025	0
20	2519	0.026	0
20	2626	0.027	0
20	2726	0.028	0
20	2819	0.029	0
20	2917	0.03	0
20	3019	0.031	0
20	3117	0.032	0
20	3214	0.033	0
20	3316	0.034	0
20	3413	0.035	0
20	3511	0.036	0
20	3609	0.037	0
20	3708	0.038	0
20	3806	0.039	0
20	3905	0.04	0
20	4007	0.041	0
20	4108	0.042	0
20	4204	0.043	0
20	4298	0.044	0
20	4396	0.045	0
20	4500	0.046	0
20	4601	0.047	0
20	4696	0.048	0
20	4794	0.049	0
20	4892	0.05	0
20	4991	0.051	0
20	5089	0.052	0
20	5188	0.053	0
20	5288	0.054	0
20	5388	0.055	0
20	5486	0.056	0
20	5583	0.057	0
20	5680	0.058	0
20	5783	0.059	0
20	5883	0.06	0
20	5978	0.061	0
20	6077	0.062	0
20	6177	0.063	0
20	6276	0.064	0
20	6372	0.065	0
20	6469	0.066	0
20	6572	0.067	0
20	6674	0.068	0
20	6770	0.069	0
20	6862	0.07	0
20	6962	0.071	0
20	7067	0.072	0
20	7166	0.073	0
20	7261	0.074	0
20	7358	0.075	0
20	7459	0.076	0
20	7557	0.077	0
20	7654	0.078	0
20	7754	0.079	0
20	7856	0.08	0
20	7954	0.081	0
20	8051	0.082	0
20	8147	0.083	0
20	8248	0.084	0
20	8350	0.085	0
20	8446	0.086	0
20	8545	0.087	0
20	8646	0.088	0
20	8745	0.089	0
20	8840	0.09	0
20	8937	0.091	0
20	9037	0.092	0
20	9138	0.093	0
20	9239	0.094	0
20	9333	0.095	0
20	9429	0.096	0
20	9531	0.097	0
20	9635	0.098	0
20	9730	0.099	0
20	9824	0.1	0
20	9927	0.101	0
21	71	0.001	0
21	162	0.002	0
21	254	0.003	0
21	348	0.004	0
21	451	0.005	0
21	552	0.006	0
21	651	0.007	0
21	748	0.008	0
21	849	0.009	0
21	949	0.01	0
21	1044	0.011	0
21	1139	0.012	0
21	1238	0.013	0
21	1344	0.014	0
21	1444	0.015	0
21	1539	0.016	0
21	1636	0.017	0
21	1735	0.018	0
21	1834	0.019	0
21	1932	0.02	0
21	2034	0.021	0
21	2133	0.022	0
21	2233	0.023	0
21	2328	0.024	0
21	2420	0.025	0
21	2520	0.026	0
21	2627	0.027	0
21	2727	0.028	0
21	2820	0.029	0
21	2918	0.03	0
21	3020	0.031	0
21	3118	0.032	0
21	3215	0.033	0
21	3317	0.034	0
21	3414	0.035	0
21	3512	0.036	0
21	3610	0.037	0
21	3709	0.038	0
21	3807	0.039	0
21	3906	0.04	0
21	4008	0.041	0
21	4109	0.042	0
21	4205	0.043	0
21	4299	0.044	0
21	4397	0.045	0
21	4501	0.046	0
21	4602	0.047	0
21	4697	0.048	0
21	4795	0.049	0
21	4893	0.05	0
21	4992	0.051	0
21	5090	0.052	0
21	5189	0.053	0
21	5289	0.054	0
21	5389	0.055	0
21	5487	0.056	0
21	5584	0.057	0
21	5681	0.058	0
21	5784	0.059	0
21	5884	0.06	0
21	5979	0.061	0
21	6078	0.062	0
21	6178	0.063	0
21	6277	0.064	0
21	6373	0.065	0
21	6470	0.066	0
21	6573	0.067	0
21	6675	0.068	0
21	6771	0.069	0
21	6863	0.07	0
21	6963	0.071	0
21	7068	0.072	0
21	7167	0.073	0
21	7262	0.074	0
21	7359	0.075	0
21	7460	0.076	0
21	7558	0.077	0
21	7655	0.078	0
21	7755	0.079	0
21	7857	0.08	0
21	7955	0.081	0
21	8052	0.082	0
21	8148	0.083	0
21	8249	0.084	0
21	8351	0.085	0
21	8447	0.086	0
21	8546	0.087	0
21	8647	0.088	0
21	8746	0.089	0
21	8841	0.09	0
21	8938	0.091	0
21	9038	0.092	0
21	9139	0.093	0
21	9240	0.094	0
21	9334	0.095	0
21	9430	0.096	0
21	9532	0.097	0
21	9636	0.098	0
21	9731	0.099	0
21	9825	0.1	0
21	9928	0.101	0
22	73	0.001	0.000553330362
22	74	0.001	0.000551217409
22	75	0.001	0.000102434818
22	76	0.001	0.000544654781
22	77	0.001	8.9309562e-005
22	78	0.001	0.000535915273
22	79	0.001	7.1830546e-005
22	80	0.001	0.00055072588
22	81	0.001	0.00010145176
22	82	0.001	0.000534800824
22	83	0.001	6.9601648e-005
22	84	0.001	0.000553513851
22	85	0.001	0.000107027702
22	86	0.001	0.000535676329
22	87	0.001	7.1352658e-005
22	88	0.001	0.000559089146
22	89	0.001	0.000118178292
22	90	0.001	0.00054967477
22	91	0.001	9.934954e-005
22	92	0.001	0.000106660724
22	165	0.002	0.000653652227
22	166	0.002	0.000204869636
22	167	0.002	0.000633964343
22	168	0.002	0.000178619124
22	169	0.002	0.000607745819
22	170	0.002	0.000143661092
22	171	0.002	0.00065217764
22	172	0.002	0.00020290352
22	173	0.002	0.000604402472
22	174	0.002	0.000139203296
22	175	0.002	0.000660541553
22	176	0.002	0.000214055404
22	177	0.002	0.000607028987
22	178	0.002	0.000142705316
22	179	0.002	0.000677267438
22	180	0.002	0.000236356584
22	181	0.002	0.00064902431
22	182	0.002	0.00019869908
22	183	0.002	0.000659991086
22	184	0.002	0.000213321448
22	257	0.003	0.000756087045
22	258	0.003	0.000307304454
22	259	0.003	0.000723273905
22	260	0.003	0.000267928686
22	261	0.003	0.000679576365
22	262	0.003	0.000215491638
22	263	0.003	0.0007536294
22	264	0.003	0.00030435528
22	265	0.003	0.00067400412
22	266	0.003	0.000208804944
22	267	0.003	0.000767569255
22	268	0.003	0.000321083106
22	269	0.003	0.000678381645
22	270	0.003	0.000214057974
22	271	0.003	0.00079544573
22	272	0.003	0.000354534876
22	273	0.003	0.00074837385
22	274	0.003	0.00029804862
22	275	0.003	0.00076665181
22	276	0.003	0.000319982172
22	351	0.004	0.000858521863
22	352	0.004	0.000409739272
22	353	0.004	0.000812583467
22	354	0.004	0.000357238248
22	355	0.004	0.000751406911
22	356	0.004	0.000287322184
22	357	0.004	0.00085508116
22	358	0.004	0.00040580704
22	359	0.004	0.000743605768
22	360	0.004	0.000278406592
22	361	0.004	0.000874596957
22	362	0.004	0.000428110808
22	363	0.004	0.000749734303
22	364	0.004	0.000285410632
22	365	0.004	0.000913624022
22	366	0.004	0.000472713168
22	367	0.004	3.1802314e-005
22	368	0.004	0.00084772339
22	369	0.004	0.00039739816
22	370	0.004	0.000873312534
22	371	0.004	0.000426642896
22	456	0.005	0.000960956681
22	457	0.005	0.00051217409
22	458	0.005	0.000901893029
22	459	0.005	0.00044654781
22	460	0.005	0.000823237457
22	461	0.005	0.00035915273
22	462	0.005	0.00095653292
22	463	0.005	0.0005072588
22	464	0.005	5.798468e-005
22	465	0.005	0.000813207416
22	466	0.005	0.00034800824
22	467	0.005	0.000981624659
22	468	0.005	0.00053513851
22	469	0.005	8.8652361e-005
22	470	0.005	0.000821086961
22	471	0.005	0.00035676329
22	472	0.005	0.00059089146
22	473	0.005	0.000149980606
22	474	0.005	0.00094707293
22	475	0.005	0.0004967477
22	476	0.005	4.642247e-005
22	477	0.005	0.000979973258
22	478	0.005	6.3391499e-005
22	479	0.005	0.00053330362
22	480	0.005	8.6633982e-005
22	555	0.006	0.000614608908
22	556	0.006	0.000165826317
22	557	0.006	0.000991202591
22	558	0.006	0.000535857372
22	559	0.006	8.0512153e-005
22	560	0.006	0.000895068003
22	561	0.006	0.000430983276
22	562	0.006	0.00060871056
22	563	0.006	0.00015943644
22	564	0.006	0.000882809064
22	565	0.006	0.000417609888
22	566	0.006	0.000642166212
22	567	0.006	0.000195680063
22	568	0.006	0.000892439619
22	569	0.006	0.000428115948
22	570	0.006	0.000709069752
22	571	0.006	0.000268158898
22	572	0.006	0.00059609724
22	573	0.006	0.00014577201
22	574	0.006	0.000639964344
22	575	0.006	0.000193294706
22	654	0.007	0.000717043726
22	655	0.007	0.000268261135
22	656	0.007	0.000625166934
22	657	0.007	0.000169821715
22	658	0.007	0.000966898549
22	659	0.007	0.000502813822
22	660	0.007	3.8729095e-005
22	661	0.007	0.00071016232
22	662	0.007	0.0002608882
22	663	0.007	0.000952410712
22	664	0.007	0.000487211536
22	665	0.007	2.201236e-005
22	666	0.007	0.000749193914
22	667	0.007	0.000302707765
22	668	0.007	0.000963792277
22	669	0.007	0.000499468606
22	670	0.007	3.5144935e-005
22	671	0.007	0.000827248044
22	672	0.007	0.00038633719
22	673	0.007	0.00069544678
22	674	0.007	0.00024512155
22	675	0.007	0.000746625068
22	676	0.007	0.00029995543
22	751	0.008	0.000819478544
22	752	0.008	0.000370695953
22	753	0.008	0.000714476496
22	754	0.008	0.000259131277
22	755	0.008	0.000574644368
22	756	0.008	0.000110559641
22	757	0.008	0.00081161408
22	758	0.008	0.00036233996
22	759	0.008	0.000556813184
22	760	0.008	9.1614008e-005
22	761	0.008	0.000856221616
22	762	0.008	0.000409735467
22	763	0.008	0.000570821264
22	764	0.008	0.000106497593
22	765	0.008	0.000945426336
22	766	0.008	0.000504515482
22	767	0.008	6.3604628e-005
22	768	0.008	0.00079479632
22	769	0.008	0.00034447109
22	770	0.008	0.000853285792
22	771	0.008	0.000406616154
22	854	0.009	0.000921913362
22	855	0.009	0.000473130771
22	856	0.009	0.000803786058
22	857	0.009	0.000348440839
22	858	0.009	0.000646474914
22	859	0.009	0.000182390187
22	860	0.009	0.00091306584
22	861	0.009	0.00046379172
22	862	0.009	1.45176e-005
22	863	0.009	0.000626414832
22	864	0.009	0.000161215656
22	865	0.009	0.000963249318
22	866	0.009	0.000516763169
22	867	0.009	7.027702e-005
22	868	0.009	0.000642173922
22	869	0.009	0.000177850251
22	870	0.009	0.000622693774
22	871	0.009	0.00018178292
22	872	0.009	0.00089414586
22	873	0.009	0.00044382063
22	874	0.009	0.000959946516
22	875	0.009	2.434818e-005
22	876	0.009	0.000513276878
22	877	0.009	6.660724e-005
22	952	0.01	0.000575565589
22	953	0.01	0.000126782998
22	954	0.01	0.00089309562
22	955	0.01	0.000437750401
22	956	0.01	0.00071830546
22	957	0.01	0.000254220733
22	958	0.01	0.00056524348
22	959	0.01	0.00011596936
22	960	0.01	0.00069601648
22	961	0.01	0.000230817304
22	962	0.01	0.000623790871
22	963	0.01	0.000177304722
22	964	0.01	0.00071352658
22	965	0.01	0.000249202909
22	966	0.01	0.000740872066
22	967	0.01	0.000299961212
22	968	0.01	0.0009934954
22	969	0.01	0.00054317017
22	970	0.01	9.284494e-005
22	971	0.01	0.000619937602
22	972	0.01	0.000173267964
22	1047	0.011	0.000678000407
22	1048	0.011	0.000229217816
22	1049	0.011	0.000982405182
22	1050	0.011	0.000527059963
22	1051	0.011	7.1714744e-005
22	1052	0.011	0.000790136006
22	1053	0.011	0.000326051279
22	1054	0.011	0.00066669524
22	1055	0.011	0.00021742112
22	1056	0.011	0.000765618128
22	1057	0.011	0.000300418952
22	1058	0.011	0.000730818573
22	1059	0.011	0.000284332424
22	1060	0.011	0.000784879238
22	1061	0.011	0.000320555567
22	1062	0.011	0.000859050358
22	1063	0.011	0.000418139504
22	1064	0.011	0.00064251971
22	1065	0.011	0.00019219448
22	1066	0.011	0.000726598326
22	1067	0.011	0.000279928688
22	1142	0.012	0.000780435225
22	1143	0.012	0.000331652634
22	1144	0.012	0.000616369525
22	1145	0.012	0.000161024306
22	1146	0.012	0.000861966552
22	1147	0.012	0.000397881825
22	1148	0.012	0.000768147
22	1149	0.012	0.00031887288
22	1150	0.012	0.000835219776
22	1151	0.012	0.0003700206
22	1152	0.012	0.000837846275
22	1153	0.012	0.000391360126
22	1154	0.012	0.000856231896
22	1155	0.012	0.000391908225
22	1156	0.012	0.00097722865
22	1157	0.012	0.000536317796
22	1158	0.012	9.5406942e-005
22	1159	0.012	0.00074186925
22	1160	0.012	0.00029154402
22	1161	0.012	0.00083325905
22	1162	0.012	0.000386589412
22	1242	0.013	0.000882870043
22	1243	0.013	0.000434087452
22	1244	0.013	0.000705679087
22	1245	0.013	0.000250333868
22	1246	0.013	0.000933797098
22	1247	0.013	0.000469712371
22	1248	0.013	5.627644e-006
22	1249	0.013	0.00086959876
22	1250	0.013	0.00042032464
22	1251	0.013	0.000904821424
22	1252	0.013	0.000439622248
22	1253	0.013	0.000944873977
22	1254	0.013	0.000498387828
22	1255	0.013	5.1901679e-005
22	1256	0.013	0.000927584554
22	1257	0.013	0.000463260883
22	1258	0.013	0.000654496088
22	1259	0.013	0.000213585234
22	1260	0.013	0.00084121879
22	1261	0.013	0.00039089356
22	1262	0.013	0.000939919774
22	1263	0.013	0.000493250136
22	1264	0.013	4.6580498e-005
22	1348	0.014	0.000985304861
22	1349	0.014	0.00053652227
22	1350	0.014	0.000794988649
22	1351	0.014	0.00033964343
22	1352	0.014	0.000541542917
22	1353	0.014	7.745819e-005
22	1354	0.014	0.00097105052
22	1355	0.014	0.0005217764
22	1356	0.014	7.250228e-005
22	1357	0.014	0.000974423072
22	1358	0.014	0.000509223896
22	1359	0.014	4.402472e-005
22	1360	0.014	0.00060541553
22	1361	0.014	0.000158929381
22	1362	0.014	0.000998937212
22	1363	0.014	0.000534613541
22	1364	0.014	7.028987e-005
22	1365	0.014	0.00077267438
22	1366	0.014	0.000331763526
22	1367	0.014	0.00094056833
22	1368	0.014	0.0004902431
22	1369	0.014	3.991787e-005
22	1370	0.014	0.00059991086
22	1371	0.014	8.7739679e-005
22	1372	0.014	0.000153241222
22	1447	0.015	0.000638957088
22	1448	0.015	0.000190174497
22	1449	0.015	0.000884298211
22	1450	0.015	0.000428952992
22	1451	0.015	0.000613373463
22	1452	0.015	0.000149288736
22	1453	0.015	0.00062322816
22	1454	0.015	0.00017395404
22	1455	0.015	0.000578825544
22	1456	0.015	0.000113626368
22	1457	0.015	0.000712443232
22	1458	0.015	0.000265957083
22	1459	0.015	0.000605966199
22	1460	0.015	0.000141642528
22	1461	0.015	0.000890852672
22	1462	0.015	0.000449941818
22	1463	0.015	9.030964e-006
22	1464	0.015	0.00058959264
22	1465	0.015	0.00013926741
22	1466	0.015	0.000706571584
22	1467	0.015	0.000259901946
22	1542	0.016	0.000741391906
22	1543	0.016	0.000292609315
22	1544	0.016	0.000973607773
22	1545	0.016	0.000518262554
22	1546	0.016	6.2917335e-005
22	1547	0.016	0.000685204009
22	1548	0.016	0.000221119282
22	1549	0.016	0.00072467992
22	1550	0.016	0.0002754058
22	1551	0.016	0.000648427192
22	1552	0.016	0.000183228016
22	1553	0.016	0.000819470934
22	1554	0.016	0.000372984785
22	1555	0.016	0.000677318857
22	1556	0.016	0.000212995186
22	1557	0.016	0.00056812011
22	1558	0.016	0.000127209256
22	1559	0.016	0.00068894218
22	1560	0.016	0.00023861695
22	1561	0.016	0.000813232308
22	1562	0.016	0.00036656267
22	1640	0.017	0.000843826724
22	1641	0.017	0.000395044133
22	1642	0.017	0.000607572116
22	1643	0.017	0.000152226897
22	1644	0.017	0.000757034555
22	1645	0.017	0.000292949828
22	1646	0.017	0.00082613168
22	1647	0.017	0.00037685756
22	1648	0.017	0.00071802884
22	1649	0.017	0.000252829664
22	1650	0.017	0.000926498636
22	1651	0.017	0.000480012487
22	1652	0.017	3.3526338e-005
22	1653	0.017	0.000748671515
22	1654	0.017	0.000284347844
22	1655	0.017	0.000686298402
22	1656	0.017	0.000245387548
22	1657	0.017	0.00078829172
22	1658	0.017	0.00033796649
22	1659	0.017	0.000919893032
22	1660	0.017	0.000473223394
22	1661	0.017	2.6553756e-005
22	1739	0.018	0.000946261542
22	1740	0.018	0.000497478951
22	1741	0.018	0.000696881678
22	1742	0.018	0.000241536459
22	1743	0.018	0.000828865101
22	1744	0.018	0.000364780374
22	1745	0.018	0.00092758344
22	1746	0.018	0.00047830932
22	1747	0.018	2.90352e-005
22	1748	0.018	0.000787630488
22	1749	0.018	0.000322431312
22	1750	0.018	0.000587040189
22	1751	0.018	0.00014055404
22	1752	0.018	0.000820024173
22	1753	0.018	0.000355700502
22	1754	0.018	0.000804476694
22	1755	0.018	0.00036356584
22	1756	0.018	0.00088764126
22	1757	0.018	0.00043731603
22	1758	0.018	0.000579884118
22	1759	0.018	4.869636e-005
22	1760	0.018	0.00013321448
22	1837	0.019	0.000599913769
22	1838	0.019	0.000151131178
22	1839	0.019	0.00078619124
22	1840	0.019	0.000330846021
22	1841	0.019	0.000900695647
22	1842	0.019	0.00043661092
22	1843	0.019	0.00057976108
22	1844	0.019	0.00013048696
22	1845	0.019	0.000857232136
22	1846	0.019	0.00039203296
22	1847	0.019	0.000694067891
22	1848	0.019	0.000247581742
22	1849	0.019	0.000891376831
22	1850	0.019	0.00042705316
22	1851	0.019	0.000922654986
22	1852	0.019	0.000481744132
22	1853	0.019	4.0833278e-005
22	1854	0.019	0.0009869908
22	1855	0.019	0.00053666557
22	1856	0.019	8.634034e-005
22	1857	0.019	0.000686544842
22	1858	0.019	0.000239875204
22	1935	0.02	0.000702348587
22	1936	0.02	0.000253565996
22	1937	0.02	0.000875500802
22	1938	0.02	0.000420155583
22	1939	0.02	0.000972526193
22	1940	0.02	0.000508441466
22	1941	0.02	4.4356739e-005
22	1942	0.02	0.00068121284
22	1943	0.02	0.00023193872
22	1944	0.02	0.000926833784
22	1945	0.02	0.000461634608
22	1946	0.02	0.000801095593
22	1947	0.02	0.000354609444
22	1948	0.02	0.000962729489
22	1949	0.02	0.000498405818
22	1950	0.02	3.4082147e-005
22	1951	0.02	0.000599922424
22	1952	0.02	0.00015901157
22	1953	0.02	0.00063601511
22	1954	0.02	0.00018568988
22	1955	0.02	0.000793205566
22	1956	0.02	0.000346535928
22	2038	0.021	0.000804783405
22	2039	0.021	0.000356000814
22	2040	0.021	0.000964810364
22	2041	0.021	0.000509465145
22	2042	0.021	5.4119926e-005
22	2043	0.021	0.000580272012
22	2044	0.021	0.000116187285
22	2045	0.021	0.0007826646
22	2046	0.021	0.00033339048
22	2047	0.021	0.000996435432
22	2048	0.021	0.000531236256
22	2049	0.021	6.603708e-005
22	2050	0.021	0.000908123295
22	2051	0.021	0.000461637146
22	2052	0.021	1.5150997e-005
22	2053	0.021	0.000569758476
22	2054	0.021	0.000105434805
22	2055	0.021	0.000718100716
22	2056	0.021	0.000277189862
22	2057	0.021	0.00073536465
22	2058	0.021	0.00028503942
22	2059	0.021	0.00089986629
22	2060	0.021	0.000453196652
22	2061	0.021	6.527014e-006
22	2137	0.022	0.000907218223
22	2138	0.022	0.000458435632
22	2139	0.022	0.000598774707
22	2140	0.022	0.000143429488
22	2141	0.022	0.000652102558
22	2142	0.022	0.000188017831
22	2143	0.022	0.00088411636
22	2144	0.022	0.00043484224
22	2145	0.022	0.000600837904
22	2146	0.022	0.000135638728
22	2147	0.022	0.000568664848
22	2148	0.022	0.000122178699
22	2149	0.022	0.000641111134
22	2150	0.022	0.000176787463
22	2151	0.022	0.000836279008
22	2152	0.022	0.000395368154
22	2153	0.022	0.00083471419
22	2154	0.022	0.00038438896
22	2155	0.022	0.000559857376
22	2156	0.022	9.653041e-006
22	2157	0.022	0.000113187738
22	2236	0.023	0.00056087045
22	2237	0.023	0.000112087859
22	2238	0.023	0.000688084269
22	2239	0.023	0.00023273905
22	2240	0.023	0.000723933104
22	2241	0.023	0.000259848377
22	2242	0.023	0.00098556812
22	2243	0.023	0.000536294
22	2244	0.023	8.701988e-005
22	2245	0.023	0.000670439552
22	2246	0.023	0.000205240376
22	2247	0.023	0.00067569255
22	2248	0.023	0.000229206401
22	2249	0.023	0.000712463792
22	2250	0.023	0.000248140121
22	2251	0.023	0.0009544573
22	2252	0.023	0.000513546446
22	2253	0.023	7.2635592e-005
22	2254	0.023	0.00093406373
22	2255	0.023	0.0004837385
22	2256	0.023	3.341327e-005
22	2257	0.023	0.0006665181
22	2258	0.023	0.000219848462
22	2331	0.024	0.000663305268
22	2332	0.024	0.000214522677
22	2333	0.024	0.000777393831
22	2334	0.024	0.000322048612
22	2335	0.024	0.00079576365
22	2336	0.024	0.000331678923
22	2337	0.024	0.00063774576
22	2338	0.024	0.00018847164
22	2339	0.024	0.0007400412
22	2340	0.024	0.000274842024
22	2341	0.024	0.000782720252
22	2342	0.024	0.000336234103
22	2343	0.024	0.00078381645
22	2344	0.024	0.000319492779
22	2345	0.024	0.000631724738
22	2346	0.024	0.000190813884
22	2347	0.024	0.00058308804
22	2348	0.024	0.00013276281
22	2349	0.024	0.000773178824
22	2350	0.024	0.000326509186
22	2423	0.025	0.000765740086
22	2424	0.025	0.000316957495
22	2425	0.025	0.000866703393
22	2426	0.025	0.000411358174
22	2427	0.025	0.000867594196
22	2428	0.025	0.000403509469
22	2429	0.025	0.00073919752
22	2430	0.025	0.0002899234
22	2431	0.025	0.000809642848
22	2432	0.025	0.000344443672
22	2433	0.025	0.000889747954
22	2434	0.025	0.000443261805
22	2435	0.025	0.000855169108
22	2436	0.025	0.000390845437
22	2437	0.025	0.00074990303
22	2438	0.025	0.000308992176
22	2439	0.025	0.00068243758
22	2440	0.025	0.00023211235
22	2441	0.025	0.000879839548
22	2442	0.025	0.00043316991
22	2524	0.026	0.000868174904
22	2525	0.026	0.000419392313
22	2526	0.026	0.000956012955
22	2527	0.026	0.000500667736
22	2528	0.026	4.5322517e-005
22	2529	0.026	0.000939424742
22	2530	0.026	0.000475340015
22	2531	0.026	1.1255288e-005
22	2532	0.026	0.00084064928
22	2533	0.026	0.00039137516
22	2534	0.026	0.000879244496
22	2535	0.026	0.00041404532
22	2536	0.026	0.000996775656
22	2537	0.026	0.000550289507
22	2538	0.026	0.000103803358
22	2539	0.026	0.000926521766
22	2540	0.026	0.000462198095
22	2541	0.026	0.000868081322
22	2542	0.026	0.000427170468
22	2543	0.026	0.00078178712
22	2544	0.026	0.00033146189
22	2545	0.026	0.000986500272
22	2546	0.026	0.000539830634
22	2547	0.026	9.3160996e-005
22	2631	0.027	0.000970609722
22	2632	0.027	0.000521827131
22	2633	0.027	0.000589977298
22	2634	0.027	0.000134632079
22	2635	0.027	0.000547170561
22	2636	0.027	8.3085834e-005
22	2637	0.027	0.00094210104
22	2638	0.027	0.00049282692
22	2639	0.027	4.35528e-005
22	2640	0.027	0.000948846144
22	2641	0.027	0.000483646968
22	2642	0.027	1.8447792e-005
22	2643	0.027	0.000657317209
22	2644	0.027	0.00021083106
22	2645	0.027	0.000997874424
22	2646	0.027	0.000533550753
22	2647	0.027	6.9227082e-005
22	2648	0.027	0.000986259614
22	2649	0.027	0.00054534876
22	2650	0.027	0.000104437906
22	2651	0.027	0.00088113666
22	2652	0.027	0.00043081143
22	2653	0.027	0.000646491358
22	2654	0.027	7.304454e-005
22	2655	0.027	0.00019982172
22	2730	0.028	0.000624261949
22	2731	0.028	0.000175479358
22	2732	0.028	0.00067928686
22	2733	0.028	0.000223941641
22	2734	0.028	0.000619001107
22	2735	0.028	0.00015491638
22	2736	0.028	0.00059427868
22	2737	0.028	0.00014500456
22	2738	0.028	0.000553248616
22	2739	0.028	8.804944e-005
22	2740	0.028	0.000764344911
22	2741	0.028	0.000317858762
22	2742	0.028	0.000604903411
22	2743	0.028	0.00014057974
22	2744	0.028	0.000663527052
22	2745	0.028	0.000222616198
22	2746	0.028	0.0009804862
22	2747	0.028	0.00053016097
22	2748	0.028	7.983574e-005
22	2749	0.028	0.000753152082
22	2750	0.028	0.000306482444
22	2823	0.029	0.000726696767
22	2824	0.029	0.000277914176
22	2825	0.029	0.000768596422
22	2826	0.029	0.000313251203
22	2827	0.029	0.000690831653
22	2828	0.029	0.000226746926
22	2829	0.029	0.00069573044
22	2830	0.029	0.00024645632
22	2831	0.029	0.000622850264
22	2832	0.029	0.000157651088
22	2833	0.029	0.000871372613
22	2834	0.029	0.000424886464
22	2835	0.029	0.000676256069
22	2836	0.029	0.000211932398
22	2837	0.029	0.000781705344
22	2838	0.029	0.00034079449
22	2839	0.029	0.00062951051
22	2840	0.029	0.00017918528
22	2841	0.029	0.000859812806
22	2842	0.029	0.000413143168
22	2922	0.03	0.000829131585
22	2923	0.03	0.000380348994
22	2924	0.03	0.000857905984
22	2925	0.03	0.000402560765
22	2926	0.03	0.000762662199
22	2927	0.03	0.000298577472
22	2928	0.03	0.0007971822
22	2929	0.03	0.00034790808
22	2930	0.03	0.000692451912
22	2931	0.03	0.000227252736
22	2932	0.03	0.000978400315
22	2933	0.03	0.000531914166
22	2934	0.03	8.5428017e-005
22	2935	0.03	0.000747608727
22	2936	0.03	0.000283285056
22	2937	0.03	0.000899883636
22	2938	0.03	0.000458972782
22	2939	0.03	1.8061928e-005
22	2940	0.03	0.00072886005
22	2941	0.03	0.00027853482
22	2942	0.03	0.00096647353
22	2943	0.03	0.000519803892
22	2944	0.03	7.3134254e-005
22	3024	0.031	0.000931566403
22	3025	0.031	0.000482783812
22	3026	0.031	0.000947215546
22	3027	0.031	0.000491870327
22	3028	0.031	3.6525108e-005
22	3029	0.031	0.000834492745
22	3030	0.031	0.000370408018
22	3031	0.031	0.00089863396
22	3032	0.031	0.00044935984
22	3033	0.031	8.572e-008
22	3034	0.031	0.00076205356
22	3035	0.031	0.000296854384
22	3036	0.031	0.000638941868
22	3037	0.031	0.000192455719
22	3038	0.031	0.000818961385
22	3039	0.031	0.000354637714
22	3040	0.031	0.000577151074
22	3041	0.031	0.00013624022
22	3042	0.031	0.00082820959
22	3043	0.031	0.00037788436
22	3044	0.031	0.000626464616
22	3045	0.031	3.4001221e-005
22	3046	0.031	0.000179794978
22	3121	0.032	0.00058521863
22	3122	0.032	0.000136436039
22	3123	0.032	0.000581179889
22	3124	0.032	0.00012583467
22	3125	0.032	0.000906323291
22	3126	0.032	0.000442238564
22	3127	0.032	0.0005508116
22	3128	0.032	0.00010153748
22	3129	0.032	0.000831655208
22	3130	0.032	0.000366456032
22	3131	0.032	0.00074596957
22	3132	0.032	0.000299483421
22	3133	0.032	0.000890314043
22	3134	0.032	0.000425990372
22	3135	0.032	0.000695329366
22	3136	0.032	0.000254418512
22	3137	0.032	0.00092755913
22	3138	0.032	0.0004772339
22	3139	0.032	2.690867e-005
22	3140	0.032	0.00073312534
22	3141	0.032	0.000286455702
22	3218	0.033	0.000687653448
22	3219	0.033	0.000238870857
22	3220	0.033	0.000670489451
22	3221	0.033	0.000215144232
22	3222	0.033	0.000978153837
22	3223	0.033	0.00051406911
22	3224	0.033	4.9984383e-005
22	3225	0.033	0.00065226336
22	3226	0.033	0.00020298924
22	3227	0.033	0.000901256856
22	3228	0.033	0.00043605768
22	3229	0.033	0.000852997272
22	3230	0.033	0.000406511123
22	3231	0.033	0.000961666701
22	3232	0.033	0.00049734303
22	3233	0.033	3.3019359e-005
22	3234	0.033	0.000813507658
22	3235	0.033	0.000372596804
22	3236	0.033	0.00057658344
22	3237	0.033	0.00012625821
22	3238	0.033	0.000839786064
22	3239	0.033	0.000393116426
22	3321	0.034	0.000790088266
22	3322	0.034	0.000341305675
22	3323	0.034	0.000759799013
22	3324	0.034	0.000304453794
22	3325	0.034	0.000585899656
22	3326	0.034	0.000121814929
22	3327	0.034	0.00075371512
22	3328	0.034	0.000304441
22	3329	0.034	0.000970858504
22	3330	0.034	0.000505659328
22	3331	0.034	4.0460152e-005
22	3332	0.034	0.000960024974
22	3333	0.034	0.000513538825
22	3334	0.034	6.7052676e-005
22	3335	0.034	0.000568695688
22	3336	0.034	0.000104372017
22	3337	0.034	0.00093168595
22	3338	0.034	0.000490775096
22	3339	0.034	4.9864242e-005
22	3340	0.034	0.00067593298
22	3341	0.034	0.00022560775
22	3342	0.034	0.000946446788
22	3343	0.034	0.00049977715
22	3344	0.034	5.3107512e-005
22	3417	0.035	0.000892523084
22	3418	0.035	0.000443740493
22	3419	0.035	0.000849108575
22	3420	0.035	0.000393763356
22	3421	0.035	0.000657730202
22	3422	0.035	0.000193645475
22	3423	0.035	0.00085516688
22	3424	0.035	0.00040589276
22	3425	0.035	0.000575260976
22	3426	0.035	0.0001100618
22	3427	0.035	0.000620566527
22	3428	0.035	0.000174080378
22	3429	0.035	0.000640048346
22	3430	0.035	0.000175724675
22	3431	0.035	0.000608953388
22	3432	0.035	0.000168042534
22	3433	0.035	0.00077528252
22	3434	0.035	0.00032495729
22	3435	0.035	0.000606437874
22	3436	0.035	0.000159768236
22	3516	0.036	0.000994957902
22	3517	0.036	0.000546175311
22	3518	0.036	0.000938418137
22	3519	0.036	0.000483072918
22	3520	0.036	2.7727699e-005
22	3521	0.036	0.000729560748
22	3522	0.036	0.000265476021
22	3523	0.036	0.00095661864
22	3524	0.036	0.00050734452
22	3525	0.036	5.80704e-005
22	3526	0.036	0.000644862624
22	3527	0.036	0.000179663448
22	3528	0.036	0.000727594229
22	3529	0.036	0.00028110808
22	3530	0.036	0.000711401004
22	3531	0.036	0.000247077333
22	3532	0.036	0.00072713168
22	3533	0.036	0.000286220826
22	3534	0.036	0.00087463206
22	3535	0.036	0.00042430683
22	3536	0.036	0.000713098598
22	3537	0.036	9.739272e-005
22	3538	0.036	0.00026642896
22	3613	0.037	0.000648610129
22	3614	0.037	0.000199827538
22	3615	0.037	0.00057238248
22	3616	0.037	0.000117037261
22	3617	0.037	0.000801391294
22	3618	0.037	0.000337306567
22	3619	0.037	0.00060879628
22	3620	0.037	0.00015952216
22	3621	0.037	0.000714464272
22	3622	0.037	0.000249265096
22	3623	0.037	0.000834621931
22	3624	0.037	0.000388135782
22	3625	0.037	0.000782753662
22	3626	0.037	0.000318429991
22	3627	0.037	0.000845309972
22	3628	0.037	0.000404399118
22	3629	0.037	0.0009739816
22	3630	0.037	0.00052365637
22	3631	0.037	7.333114e-005
22	3632	0.037	0.000819759322
22	3633	0.037	0.000373089684
22	3713	0.038	0.000751044947
22	3714	0.038	0.000302262356
22	3715	0.038	0.000661692042
22	3716	0.038	0.000206346823
22	3717	0.038	0.00087322184
22	3718	0.038	0.000409137113
22	3719	0.038	0.00071024804
22	3720	0.038	0.00026097392
22	3721	0.038	0.00078406592
22	3722	0.038	0.000318866744
22	3723	0.038	0.000941649633
22	3724	0.038	0.000495163484
22	3725	0.038	4.8677335e-005
22	3726	0.038	0.00085410632
22	3727	0.038	0.000389782649
22	3728	0.038	0.000963488264
22	3729	0.038	0.00052257741
22	3730	0.038	8.1666556e-005
22	3731	0.038	0.00062300591
22	3732	0.038	0.00017268068
22	3733	0.038	0.000926420046
22	3734	0.038	0.000479750408
22	3735	0.038	3.308077e-005
22	3810	0.039	0.000853479765
22	3811	0.039	0.000404697174
22	3812	0.039	0.000751001604
22	3813	0.039	0.000295656385
22	3814	0.039	0.000945052386
22	3815	0.039	0.000480967659
22	3816	0.039	1.6882932e-005
22	3817	0.039	0.0008116998
22	3818	0.039	0.00036242568
22	3819	0.039	0.000853667568
22	3820	0.039	0.000388468392
22	3821	0.039	0.000602191186
22	3822	0.039	0.000155705037
22	3823	0.039	0.000925458978
22	3824	0.039	0.000461135307
22	3825	0.039	0.000640755702
22	3826	0.039	0.000199844848
22	3827	0.039	0.00072235545
22	3828	0.039	0.00027203022
22	3829	0.039	0.000586411132
22	3830	0.039	0.000139741494
22	3910	0.04	0.000955914583
22	3911	0.04	0.000507131992
22	3912	0.04	0.000840311166
22	3913	0.04	0.000384965947
22	3914	0.04	0.000552798205
22	3915	0.04	8.8713478e-005
22	3916	0.04	0.00091315156
22	3917	0.04	0.00046387744
22	3918	0.04	1.460332e-005
22	3919	0.04	0.000923269216
22	3920	0.04	0.00045807004
22	3921	0.04	0.000709218888
22	3922	0.04	0.000262732739
22	3923	0.04	0.000996811636
22	3924	0.04	0.000532487965
22	3925	0.04	6.8164294e-005
22	3926	0.04	0.000758933994
22	3927	0.04	0.00031802314
22	3928	0.04	0.00082170499
22	3929	0.04	0.00037137976
22	3930	0.04	0.000693071856
22	3931	0.04	5.8349401e-005
22	3932	0.04	0.000246402218
22	4011	0.041	0.00060956681
22	4012	0.041	0.000160784219
22	4013	0.041	0.000929620728
22	4014	0.041	0.000474275509
22	4015	0.041	1.893029e-005
22	4016	0.041	0.000624628751
22	4017	0.041	0.000160544024
22	4018	0.041	0.0005653292
22	4019	0.041	0.00011605508
22	4020	0.041	0.000992870864
22	4021	0.041	0.000527671688
22	4022	0.041	6.2472512e-005
22	4023	0.041	0.00081624659
22	4024	0.041	0.000369760441
22	4025	0.041	0.000603840623
22	4026	0.041	0.000139516952
22	4027	0.041	0.000877112286
22	4028	0.041	0.000436201432
22	4029	0.041	0.00092105453
22	4030	0.041	0.0004707293
22	4031	0.041	2.040407e-005
22	4032	0.041	0.00079973258
22	4033	0.041	0.000353062942
22	4113	0.042	0.000712001628
22	4114	0.042	0.000263219037
22	4115	0.042	0.000563585071
22	4116	0.042	0.000108239852
22	4117	0.042	0.000696459297
22	4118	0.042	0.00023237457
22	4119	0.042	0.00066678096
22	4120	0.042	0.00021750684
22	4121	0.042	0.000597273336
22	4122	0.042	0.00013207416
22	4123	0.042	0.000923274292
22	4124	0.042	0.000476788143
22	4125	0.042	3.0301994e-005
22	4126	0.042	0.000675193281
22	4127	0.042	0.00021086961
22	4128	0.042	0.000995290578
22	4129	0.042	0.000554379724
22	4130	0.042	0.00011346887
22	4131	0.042	0.00057007884
22	4132	0.042	0.00011975361
22	4133	0.042	0.000906393304
22	4134	0.042	0.000459723666
22	4135	0.042	1.3054028e-005
22	4208	0.043	0.000814436446
22	4209	0.043	0.000365653855
22	4210	0.043	0.000652894633
22	4211	0.043	0.000197549414
22	4212	0.043	0.000768289843
22	4213	0.043	0.000304205116
22	4214	0.043	0.00076823272
22	4215	0.043	0.0003189586
22	4216	0.043	0.000666874984
22	4217	0.043	0.000201675808
22	4218	0.043	0.000583815845
22	4219	0.043	0.000137329696
22	4220	0.043	0.000746545939
22	4221	0.043	0.000282222268
22	4222	0.043	0.000672558016
22	4223	0.043	0.000231647162
22	4224	0.043	0.00066942838
22	4225	0.043	0.00021910315
22	4226	0.043	0.00056638439
22	4227	0.043	0.000119714752
22	4303	0.044	0.000916871264
22	4304	0.044	0.000468088673
22	4305	0.044	0.000742204195
22	4306	0.044	0.000286858976
22	4307	0.044	0.000840120389
22	4308	0.044	0.000376035662
22	4309	0.044	0.00086968448
22	4310	0.044	0.00042041036
22	4311	0.044	0.000736476632
22	4312	0.044	0.000271277456
22	4313	0.044	0.000690843547
22	4314	0.044	0.000244357398
22	4315	0.044	0.000817898597
22	4316	0.044	0.000353574926
22	4317	0.044	0.000790736308
22	4318	0.044	0.000349825454
22	4319	0.044	0.00076877792
22	4320	0.044	0.00031845269
22	4321	0.044	0.000673045114
22	4322	0.044	1.9306082e-005
22	4323	0.044	0.000226375476
22	4400	0.045	0.000570523491
22	4401	0.045	0.0001217409
22	4402	0.045	0.000831513757
22	4403	0.045	0.000376168538
22	4404	0.045	0.000911950935
22	4405	0.045	0.000447866208
22	4406	0.045	0.00097113624
22	4407	0.045	0.00052186212
22	4408	0.045	7.2588e-005
22	4409	0.045	0.00080607828
22	4410	0.045	0.000340879104
22	4411	0.045	0.000797871249
22	4412	0.045	0.0003513851
22	4413	0.045	0.000889251255
22	4414	0.045	0.000424927584
22	4415	0.045	0.0009089146
22	4416	0.045	0.000468003746
22	4417	0.045	2.7092892e-005
22	4418	0.045	0.00086812746
22	4419	0.045	0.00041780223
22	4420	0.045	0.000779705838
22	4421	0.045	0.0003330362
22	4504	0.046	0.000672958309
22	4505	0.046	0.000224175718
22	4506	0.046	0.000920823319
22	4507	0.046	0.0004654781
22	4508	0.046	1.0132881e-005
22	4509	0.046	0.000983781481
22	4510	0.046	0.000519696754
22	4511	0.046	5.5612027e-005
22	4512	0.046	0.00062331388
22	4513	0.046	0.00017403976
22	4514	0.046	0.000875679928
22	4515	0.046	0.000410480752
22	4516	0.046	0.000904898951
22	4517	0.046	0.000458412802
22	4518	0.046	1.1926653e-005
22	4519	0.046	0.000960603913
22	4520	0.046	0.000496280242
22	4521	0.046	3.1956571e-005
22	4522	0.046	0.000586182038
22	4523	0.046	0.000145271184
22	4524	0.046	0.000967477
22	4525	0.046	0.00051715177
22	4526	0.046	6.682654e-005
22	4527	0.046	0.000886366562
22	4528	0.046	0.000439696924
22	4606	0.047	0.000775393127
22	4607	0.047	0.000326610536
22	4608	0.047	0.000554787662
22	4609	0.047	9.9442443e-005
22	4610	0.047	0.0005915273
22	4611	0.047	0.000127442573
22	4612	0.047	0.00072476564
22	4613	0.047	0.00027549152
22	4614	0.047	0.000945281576
22	4615	0.047	0.0004800824
22	4616	0.047	1.4883224e-005
22	4617	0.047	0.000565440504
22	4618	0.047	0.000118954355
22	4619	0.047	0.0005676329
22	4620	0.047	0.000103309229
22	4621	0.047	0.00070436033
22	4622	0.047	0.000263449476
22	4623	0.047	0.00061650131
22	4624	0.047	0.00016617608
22	4625	0.047	0.000993027286
22	4626	0.047	0.000546357648
22	4627	0.047	9.968801e-005
22	4700	0.048	0.000877827945
22	4701	0.048	0.000429045354
22	4702	0.048	0.000644097224
22	4703	0.048	0.000188752005
22	4704	0.048	0.000663357846
22	4705	0.048	0.000199273119
22	4706	0.048	0.0008262174
22	4707	0.048	0.00037694328
22	4708	0.048	0.000549684048
22	4709	0.048	8.4484872e-005
22	4710	0.048	0.000672468206
22	4711	0.048	0.000225982057
22	4712	0.048	0.000638985558
22	4713	0.048	0.000174661887
22	4714	0.048	0.000822538622
22	4715	0.048	0.000381627768
22	4716	0.048	0.00071585085
22	4717	0.048	0.00026552562
22	4718	0.048	0.000653018372
22	4719	0.048	0.000206348734
22	4799	0.049	0.000980262763
22	4800	0.049	0.000531480172
22	4801	0.049	0.000733406786
22	4802	0.049	0.000278061567
22	4803	0.049	0.000735188392
22	4804	0.049	0.000271103665
22	4805	0.049	0.00092766916
22	4806	0.049	0.00047839504
22	4807	0.049	2.912092e-005
22	4808	0.049	0.000619285696
22	4809	0.049	0.00015408652
22	4810	0.049	0.000779495908
22	4811	0.049	0.000333009759
22	4812	0.049	0.000710338216
22	4813	0.049	0.000246014545
22	4814	0.049	0.000940716914
22	4815	0.049	0.00049980606
22	4816	0.049	5.8895206e-005
22	4817	0.049	0.00081520039
22	4818	0.049	0.00036487516
22	4819	0.049	0.000759679096
22	4820	0.049	8.2697581e-005
22	4821	0.049	0.000313009458
22	4896	0.05	0.00063391499
22	4897	0.05	0.000185132399
22	4898	0.05	0.000822716348
22	4899	0.05	0.000367371129
22	4900	0.05	0.000807018938
22	4901	0.05	0.000342934211
22	4902	0.05	0.0005798468
22	4903	0.05	0.00013057268
22	4904	0.05	0.000688887344
22	4905	0.05	0.000223688168
22	4906	0.05	0.00088652361
22	4907	0.05	0.000440037461
22	4908	0.05	0.000781690874
22	4909	0.05	0.000317367203
22	4910	0.05	0.000617984352
22	4911	0.05	0.000177073498
22	4912	0.05	0.00091454993
22	4913	0.05	0.0004642247
22	4914	0.05	1.389947e-005
22	4915	0.05	0.00086633982
22	4916	0.05	0.000419670182
22	4996	0.051	0.000736349808
22	4997	0.051	0.000287567217
22	4998	0.051	0.00091202591
22	4999	0.051	0.000456680691
22	5000	0.051	1.335472e-006
22	5001	0.051	0.000878849484
22	5002	0.051	0.000414764757
22	5003	0.051	0.00068129856
22	5004	0.051	0.00023202444
22	5005	0.051	0.000758488992
22	5006	0.051	0.000293289816
22	5007	0.051	0.000993551312
22	5008	0.051	0.000547065163
22	5009	0.051	0.000100579014
22	5010	0.051	0.000853043532
22	5011	0.051	0.000388719861
22	5012	0.051	0.000736162644
22	5013	0.051	0.00029525179
22	5014	0.051	0.00056357424
22	5015	0.051	0.00011324901
22	5016	0.051	0.000973000544
22	5017	0.051	0.000526330906
22	5018	0.051	7.9661268e-005
22	5093	0.052	0.000838784626
22	5094	0.052	0.000390002035
22	5095	0.052	0.000545990253
22	5096	0.052	9.0645034e-005
22	5097	0.052	0.00095068003
22	5098	0.052	0.000486595303
22	5099	0.052	2.2510576e-005
22	5100	0.052	0.00078275032
22	5101	0.052	0.0003334762
22	5102	0.052	0.00082809064
22	5103	0.052	0.000362891464
22	5104	0.052	0.000654092865
22	5105	0.052	0.000207606716
22	5106	0.052	0.00092439619
22	5107	0.052	0.000460072519
22	5108	0.052	0.000854340936
22	5109	0.052	0.000413430082
22	5110	0.052	0.00066292378
22	5111	0.052	0.00021259855
22	5112	0.052	0.00063299163
22	5113	0.052	0.000186321992
22	5193	0.053	0.000941219444
22	5194	0.053	0.000492436853
22	5195	0.053	0.000635299815
22	5196	0.053	0.000179954596
22	5197	0.053	0.000558425849
22	5198	0.053	9.4341122e-005
22	5199	0.053	0.00088420208
22	5200	0.053	0.00043492796
22	5201	0.053	0.000897692288
22	5202	0.053	0.000432493112
22	5203	0.053	0.000761120567
22	5204	0.053	0.000314634418
22	5205	0.053	0.000995748848
22	5206	0.053	0.000531425177
22	5207	0.053	6.7101506e-005
22	5208	0.053	0.000972519228
22	5209	0.053	0.000531608374
22	5210	0.053	9.069752e-005
22	5211	0.053	0.00076227332
22	5212	0.053	0.00031194809
22	5213	0.053	0.000739652354
22	5214	0.053	4.3654262e-005
22	5215	0.053	0.000292982716
22	5292	0.054	0.000594871671
22	5293	0.054	0.00014608908
22	5294	0.054	0.000724609377
22	5295	0.054	0.000269264158
22	5296	0.054	0.000630256395
22	5297	0.054	0.000166171668
22	5298	0.054	0.00098565384
22	5299	0.054	0.00053637972
22	5300	0.054	8.71056e-005
22	5301	0.054	0.000967293936
22	5302	0.054	0.00050209476
22	5303	0.054	3.6895584e-005
22	5304	0.054	0.000868148269
22	5305	0.054	0.00042166212
22	5306	0.054	0.000602777835
22	5307	0.054	0.000138454164
22	5308	0.054	0.000649786666
22	5309	0.054	0.000208875812
22	5310	0.054	0.00086162286
22	5311	0.054	0.00041129763
22	5312	0.054	0.000846313078
22	5313	0.054	0.00039964344
22	5393	0.055	0.000697306489
22	5394	0.055	0.000248523898
22	5395	0.055	0.000813918939
22	5396	0.055	0.00035857372
22	5397	0.055	0.000702086941
22	5398	0.055	0.000238002214
22	5399	0.055	0.00063783148
22	5400	0.055	0.00018855736
22	5401	0.055	0.000571696408
22	5402	0.055	0.000106497232
22	5403	0.055	0.000975175971
22	5404	0.055	0.000528689822
22	5405	0.055	8.2203673e-005
22	5406	0.055	0.000674130493
22	5407	0.055	0.000209806822
22	5408	0.055	0.000767964958
22	5409	0.055	0.000327054104
22	5410	0.055	0.0009609724
22	5411	0.055	0.00051064717
22	5412	0.055	6.032194e-005
22	5413	0.055	0.000952973802
22	5414	0.055	0.000506304164
22	5415	0.055	5.9634526e-005
22	5490	0.056	0.000799741307
22	5491	0.056	0.000350958716
22	5492	0.056	0.000903228501
22	5493	0.056	0.000447883282
22	5494	0.056	0.000773917487
22	5495	0.056	0.00030983276
22	5496	0.056	0.00073928324
22	5497	0.056	0.00029000912
22	5498	0.056	0.000641298056
22	5499	0.056	0.00017609888
22	5500	0.056	0.000635717524
22	5501	0.056	0.000189231375
22	5502	0.056	0.000745483151
22	5503	0.056	0.00028115948
22	5504	0.056	0.00088614325
22	5505	0.056	0.000445232396
22	5506	0.056	4.321542e-006
22	5507	0.056	0.00060999671
22	5508	0.056	0.00015967148
22	5509	0.056	0.000612964888
22	5510	0.056	0.00016629525
22	5588	0.057	0.000902176125
22	5589	0.057	0.000453393534
22	5590	0.057	0.000992538063
22	5591	0.057	0.000537192844
22	5592	0.057	8.1847625e-005
22	5593	0.057	0.000845748033
22	5594	0.057	0.000381663306
22	5595	0.057	0.000840735
22	5596	0.057	0.00039146088
22	5597	0.057	0.000710899704
22	5598	0.057	0.000245700528
22	5599	0.057	0.000742745226
22	5600	0.057	0.000296259077
22	5601	0.057	0.000816835809
22	5602	0.057	0.000352512138
22	5603	0.057	0.000563410688
22	5604	0.057	0.000122499834
22	5605	0.057	0.00070934625
22	5606	0.057	0.00025902102
22	5607	0.057	0.000719625612
22	5608	0.057	4.610943e-006
22	5609	0.057	0.000272955974
22	5684	0.058	0.000555828352
22	5685	0.058	0.000107045761
22	5686	0.058	0.000626502406
22	5687	0.058	0.000171157187
22	5688	0.058	0.000917578579
22	5689	0.058	0.000453493852
22	5690	0.058	0.00094218676
22	5691	0.058	0.00049291264
22	5692	0.058	4.363852e-005
22	5693	0.058	0.000780501352
22	5694	0.058	0.000315302176
22	5695	0.058	0.000849772928
22	5696	0.058	0.000403286779
22	5697	0.058	0.000888188467
22	5698	0.058	0.000423864796
22	5699	0.058	0.00068158898
22	5700	0.058	0.000240678126
22	5701	0.058	0.00080869579
22	5702	0.058	0.00035837056
22	5703	0.058	0.000826286336
22	5704	0.058	0.000379616698
22	5788	0.059	0.00065826317
22	5789	0.059	0.000209480579
22	5790	0.059	0.000715811968
22	5791	0.059	0.000260466749
22	5792	0.059	0.000989409125
22	5793	0.059	0.000525324398
22	5794	0.059	6.1239671e-005
22	5795	0.059	0.0005943644
22	5796	0.059	0.00014509028
22	5797	0.059	0.000850103
22	5798	0.059	0.000384903824
22	5799	0.059	0.00095680063
22	5800	0.059	0.000510314481
22	5801	0.059	6.3828332e-005
22	5802	0.059	0.000959541125
22	5803	0.059	0.000495217454
22	5804	0.059	3.0893783e-005
22	5805	0.059	0.000799767272
22	5806	0.059	0.000358856418
22	5807	0.059	0.00090804533
22	5808	0.059	0.0004577201
22	5809	0.059	7.39487e-006
22	5810	0.059	0.00093294706
22	5811	0.059	0.000486277422
22	5812	0.059	3.9607784e-005
22	5887	0.06	0.000760697988
22	5888	0.06	0.000311915397
22	5889	0.06	0.00080512153
22	5890	0.06	0.000349776311
22	5891	0.06	0.000597154944
22	5892	0.06	0.000133070217
22	5893	0.06	0.00069581616
22	5894	0.06	0.00024654204
22	5895	0.06	0.000919704648
22	5896	0.06	0.000454505472
22	5897	0.06	0.000617342183
22	5898	0.06	0.000170856034
22	5899	0.06	0.000566570112
22	5900	0.06	0.000102246441
22	5901	0.06	0.000917945564
22	5902	0.06	0.00047703471
22	5903	0.06	3.6123856e-005
22	5904	0.06	0.00055706964
22	5905	0.06	0.00010674441
22	5906	0.06	0.000592938146
22	5907	0.06	0.000146268508
22	5982	0.061	0.000863132806
22	5983	0.061	0.000414350215
22	5984	0.061	0.000894431092
22	5985	0.061	0.000439085873
22	5986	0.061	0.00066898549
22	5987	0.061	0.000204900763
22	5988	0.061	0.00079726792
22	5989	0.061	0.0003479938
22	5990	0.061	0.000989306296
22	5991	0.061	0.00052410712
22	5992	0.061	5.8907944e-005
22	5993	0.061	0.000724369885
22	5994	0.061	0.000277883736
22	5995	0.061	0.00063792277
22	5996	0.061	0.000173599099
22	5997	0.061	0.000595213002
22	5998	0.061	0.000154302148
22	5999	0.061	0.00065641918
22	6000	0.061	0.00020609395
22	6001	0.061	0.00069959887
22	6002	0.061	0.000252929232
22	6082	0.062	0.000965567624
22	6083	0.062	0.000516785033
22	6084	0.062	0.000983740654
22	6085	0.062	0.000528395435
22	6086	0.062	7.3050216e-005
22	6087	0.062	0.000740816036
22	6088	0.062	0.000276731309
22	6089	0.062	0.00089871968
22	6090	0.062	0.00044944556
22	6091	0.062	1.7144e-007
22	6092	0.062	0.000593708768
22	6093	0.062	0.000128509592
22	6094	0.062	0.000831397587
22	6095	0.062	0.000384911438
22	6096	0.062	0.000709275428
22	6097	0.062	0.000244951757
22	6098	0.062	0.000713391294
22	6099	0.062	0.00027248044
22	6100	0.062	0.00075576872
22	6101	0.062	0.00030544349
22	6102	0.062	0.000806259594
22	6103	0.062	6.8002442e-005
22	6104	0.062	0.000359589956
22	6182	0.063	0.000619219851
22	6183	0.063	0.00017043726
22	6184	0.063	0.000617704997
22	6185	0.063	0.000162359778
22	6186	0.063	0.000812646582
22	6187	0.063	0.000348561855
22	6188	0.063	0.00055089732
22	6189	0.063	0.0001016232
22	6190	0.063	0.000663310416
22	6191	0.063	0.00019811124
22	6192	0.063	0.000938425289
22	6193	0.063	0.00049193914
22	6194	0.063	4.5452991e-005
22	6195	0.063	0.000780628086
22	6196	0.063	0.000316304415
22	6197	0.063	0.000831569586
22	6198	0.063	0.000390658732
22	6199	0.063	0.00085511826
22	6200	0.063	0.00040479303
22	6201	0.063	0.000912920318
22	6202	0.063	0.00046625068
22	6203	0.063	1.9581042e-005
22	6280	0.064	0.000721654669
22	6281	0.064	0.000272872078
22	6282	0.064	0.000707014559
22	6283	0.064	0.00025166934
22	6284	0.064	0.000884477128
22	6285	0.064	0.000420392401
22	6286	0.064	0.00065234908
22	6287	0.064	0.00020307496
22	6288	0.064	0.000732912064
22	6289	0.064	0.000267712888
22	6290	0.064	0.000598966842
22	6291	0.064	0.000152480693
22	6292	0.064	0.000851980744
22	6293	0.064	0.000387657073
22	6294	0.064	0.000949747878
22	6295	0.064	0.000508837024
22	6296	0.064	6.792617e-005
22	6297	0.064	0.0009544678
22	6298	0.064	0.00050414257
22	6299	0.064	5.381734e-005
22	6300	0.064	0.000572911404
22	6301	0.064	0.000126241766
22	6376	0.065	0.000824089487
22	6377	0.065	0.000375306896
22	6378	0.065	0.000796324121
22	6379	0.065	0.000340978902
22	6380	0.065	0.000956307674
22	6381	0.065	0.000492222947
22	6382	0.065	2.813822e-005
22	6383	0.065	0.00075380084
22	6384	0.065	0.00030452672
22	6385	0.065	0.000802513712
22	6386	0.065	0.000337314536
22	6387	0.065	0.000705994544
22	6388	0.065	0.000259508395
22	6389	0.065	0.000923333402
22	6390	0.065	0.000459009731
22	6391	0.065	0.000627015316
22	6392	0.065	0.000186104462
22	6393	0.065	0.00060349211
22	6394	0.065	0.00015316688
22	6395	0.065	0.000679572128
22	6396	0.065	0.00023290249
22	6474	0.066	0.000926524305
22	6475	0.066	0.000477741714
22	6476	0.066	0.000885633683
[...]
22	6872	0.07	0.00081178552
22	6873	0.07	0.0003625114
22	6874	0.07	0.000685322776
22	6875	0.07	0.0002201236
22	6876	0.07	0.000794646905
22	6877	0.07	0.000348160756
22	6878	0.07	0.000815773021
22	6879	0.07	0.00035144935
22	6880	0.07	0.000776995922
22	6881	0.07	0.000336085068
22	6882	0.07	0.00064991458
22	6883	0.07	0.00019958935
22	6884	0.07	0.00076620611
22	6885	0.07	0.000319536472
22	6967	0.071	0.000989915804
22	6968	0.071	0.000541133213
22	6969	0.071	0.000876836274
22	6970	0.071	0.000421491055
22	6971	0.071	0.000923206223
22	6972	0.071	0.000459121496
22	6973	0.071	0.00091323728
22	6974	0.071	0.00046396316
22	6975	0.071	1.468904e-005
22	6976	0.071	0.000754924424
22	6977	0.071	0.000289725248
22	6978	0.071	0.000901674607
22	6979	0.071	0.000455188458
22	6980	0.071	8.702309e-006
22	6981	0.071	0.000887125679
22	6982	0.071	0.000422802008
22	6983	0.071	0.000895174214
22	6984	0.071	0.00045426336
22	6985	0.071	1.3352506e-005
22	6986	0.071	0.00074926412
22	6987	0.071	0.00029893889
22	6988	0.071	0.000872866834
22	6989	0.071	9.2350622e-005
22	6990	0.071	0.000426197196
22	7072	0.072	0.000643568031
22	7073	0.072	0.00019478544
22	7074	0.072	0.000966145836
22	7075	0.072	0.000510800617
22	7076	0.072	5.5455398e-005
22	7077	0.072	0.000995036769
22	7078	0.072	0.000530952042
22	7079	0.072	6.6867315e-005
22	7080	0.072	0.00056541492
22	7081	0.072	0.0001161408
22	7082	0.072	0.000824526072
22	7083	0.072	0.000359326896
22	7084	0.072	0.00056221616
22	7085	0.072	0.000115730011
22	7086	0.072	0.000958478337
22	7087	0.072	0.000494154666
22	7088	0.072	2.9830995e-005
22	7089	0.072	0.000572441652
22	7090	0.072	0.000131530798
22	7091	0.072	0.00084861366
22	7092	0.072	0.00039828843
22	7093	0.072	0.000979527558
22	7094	0.072	0.00053285792
22	7095	0.072	8.6188282e-005
22	7170	0.073	0.000746002849
22	7171	0.073	0.000297220258
22	7172	0.073	0.000600110179
22	7173	0.073	0.00014476496
22	7174	0.073	0.000602782588
22	7175	0.073	0.000138697861
22	7176	0.073	0.00066686668
22	7177	0.073	0.00021759256
22	7178	0.073	0.00089412772
22	7179	0.073	0.000428928544
22	7180	0.073	0.000669243862
22	7181	0.073	0.000222757713
22	7182	0.073	0.000565507324
22	7183	0.073	0.000101183653
22	7184	0.073	0.000690619944
22	7185	0.073	0.00024970909
22	7186	0.073	0.0009479632
22	7187	0.073	0.00049763797
22	7188	0.073	4.731274e-005
22	7189	0.073	0.000639518644
22	7190	0.073	0.000192849006
22	7265	0.074	0.000848437667
22	7266	0.074	0.000399655076
22	7267	0.074	0.000689419741
22	7268	0.074	0.000234074522
22	7269	0.074	0.000674613134
22	7270	0.074	0.000210528407
22	7271	0.074	0.00076831844
22	7272	0.074	0.00031904432
22	7273	0.074	0.000963729368
22	7274	0.074	0.000498530192
22	7275	0.074	3.3331016e-005
22	7276	0.074	0.000776271564
22	7277	0.074	0.000329785415
22	7278	0.074	0.000636859982
22	7279	0.074	0.000172536311
22	7280	0.074	0.000808798236
22	7281	0.074	0.000367887382
22	7282	0.074	0.00059698751
22	7283	0.074	0.00014666228
22	7284	0.074	0.000746179368
22	7285	0.074	0.00029950973
22	7363	0.075	0.000950872485
22	7364	0.075	0.000502089894
22	7365	0.075	0.000778729303
22	7366	0.075	0.000323384084
22	7367	0.075	0.00074644368
22	7368	0.075	0.000282358953
22	7369	0.075	0.0008697702
22	7370	0.075	0.00042049608
22	7371	0.075	0.00056813184
22	7372	0.075	0.000102932664
22	7373	0.075	0.000883299266
22	7374	0.075	0.000436813117
22	7375	0.075	0.00070821264
22	7376	0.075	0.000243888969
22	7377	0.075	0.000926976528
22	7378	0.075	0.000486065674
22	7379	0.075	4.515482e-005
22	7380	0.075	0.00069633705
22	7381	0.075	0.00024601182
22	7382	0.075	0.000852840092
22	7383	0.075	5.3307303e-005
22	7384	0.075	0.000406170454
22	7464	0.076	0.000604524712
22	7465	0.076	0.000155742121
22	7466	0.076	0.000868038865
22	7467	0.076	0.000412693646
22	7468	0.076	0.000818274226
22	7469	0.076	0.000354189499
22	7470	0.076	0.00097122196
22	7471	0.076	0.00052194784
22	7472	0.076	7.267372e-005
22	7473	0.076	0.000637733488
22	7474	0.076	0.000172534312
22	7475	0.076	0.000990326968
22	7476	0.076	0.000543840819
22	7477	0.076	9.735467e-005
22	7478	0.076	0.000779565298
22	7479	0.076	0.000315241627
22	7480	0.076	0.000604243966
22	7481	0.076	0.000163333112
22	7482	0.076	0.00079568659
22	7483	0.076	0.00034536136
22	7484	0.076	0.000959500816
22	7485	0.076	0.000512831178
22	7486	0.076	6.616154e-005
22	7561	0.077	0.00070695953
22	7562	0.077	0.000258176939
22	7563	0.077	0.000957348427
22	7564	0.077	0.000502003208
22	7565	0.077	4.6657989e-005
22	7566	0.077	0.000890104772
22	7567	0.077	0.000426020045
22	7568	0.077	0.0006233996
22	7569	0.077	0.00017412548
22	7570	0.077	0.000707335136
22	7571	0.077	0.00024213596
22	7572	0.077	0.000650868521
22	7573	0.077	0.000204382372
22	7574	0.077	0.000850917956
22	7575	0.077	0.000386594285
22	7576	0.077	0.000722422258
22	7577	0.077	0.000281511404
22	7578	0.077	0.00089503613
22	7579	0.077	0.0004447109
22	7580	0.077	0.000619491902
22	7581	0.077	0.000172822264
22	7658	0.078	0.000809394348
22	7659	0.078	0.000360611757
22	7660	0.078	0.00059131277
22	7661	0.078	0.000135967551
22	7662	0.078	0.000961935318
22	7663	0.078	0.000497850591
22	7664	0.078	3.3765864e-005
22	7665	0.078	0.00072485136
22	7666	0.078	0.00027557724
22	7667	0.078	0.000776936784
22	7668	0.078	0.000311737608
22	7669	0.078	0.000757896223
22	7670	0.078	0.000311410074
22	7671	0.078	0.000922270614
22	7672	0.078	0.000457946943
22	7673	0.078	0.00084060055
22	7674	0.078	0.000399689696
22	7675	0.078	0.00099438567
22	7676	0.078	0.00054406044
22	7677	0.078	9.373521e-005
22	7678	0.078	0.000726152626
22	7679	0.078	0.000279482988
22	7759	0.079	0.000911829166
22	7760	0.079	0.000463046575
22	7761	0.079	0.000680622332
22	7762	0.079	0.000225277113
22	7763	0.079	0.000569681137
22	7764	0.079	0.00010559641
22	7765	0.079	0.00082630312
22	7766	0.079	0.000377029
22	7767	0.079	0.000846538432
22	7768	0.079	0.000381339256
22	7769	0.079	0.000864923925
22	7770	0.079	0.000418437776
22	7771	0.079	0.000993623272
22	7772	0.079	0.000529299601
22	7773	0.079	6.497593e-005
22	7774	0.079	0.000958778842
22	7775	0.079	0.000517867988
22	7776	0.079	7.6957134e-005
22	7777	0.079	0.00064340998
22	7778	0.079	0.00019308475
22	7779	0.079	0.00083281335
22	7780	0.079	1.4263984e-005
22	7781	0.079	0.000386143712
22	7861	0.08	0.000565481393
22	7862	0.08	0.000116698802
22	7863	0.08	0.000769931894
22	7864	0.08	0.000314586675
22	7865	0.08	0.000641511683
22	7866	0.08	0.000177426956
22	7867	0.08	0.00092775488
22	7868	0.08	0.00047848076
22	7869	0.08	2.920664e-005
22	7870	0.08	0.00091614008
22	7871	0.08	0.000450940904
22	7872	0.08	0.000971951627
22	7873	0.08	0.000525465478
22	7874	0.08	7.8979329e-005
22	7875	0.08	0.000600652259
22	7876	0.08	0.000136328588
22	7877	0.08	0.00063604628
22	7878	0.08	0.000195135426
22	7879	0.08	0.00074275952
22	7880	0.08	0.00029243429
22	7881	0.08	0.000939474074
22	7882	0.08	0.000492804436
22	7883	0.08	4.6134798e-005
22	7958	0.081	0.000667916211
22	7959	0.081	0.00021913362
22	7960	0.081	0.000859241456
22	7961	0.081	0.000403896237
22	7962	0.081	0.000713342229
22	7963	0.081	0.000249257502
22	7964	0.081	0.00057993252
22	7965	0.081	0.0001306584
22	7966	0.081	0.000985741728
22	7967	0.081	0.000520542552
22	7968	0.081	5.5343376e-005
22	7969	0.081	0.00063249318
22	7970	0.081	0.000186007031
22	7971	0.081	0.000672004917
22	7972	0.081	0.000207681246
22	7973	0.081	0.000754224572
22	7974	0.081	0.000313313718
22	7975	0.081	0.00084210906
22	7976	0.081	0.00039178383
22	7977	0.081	0.00059946516
22	7978	0.081	0.000152795522
22	8055	0.082	0.000770351029
22	8056	0.082	0.000321568438
22	8057	0.082	0.000948551018
22	8058	0.082	0.000493205799
22	8059	0.082	3.786058e-005
22	8060	0.082	0.000785172775
22	8061	0.082	0.000321088048
22	8062	0.082	0.00068138428
22	8063	0.082	0.00023211016
22	8064	0.082	0.0005901442
22	8065	0.082	0.000124945024
22	8066	0.082	0.000739520882
22	8067	0.082	0.000293034733
22	8068	0.082	0.000743357575
22	8069	0.082	0.000279033904
22	8070	0.082	0.000872402864
22	8071	0.082	0.00043149201
22	8072	0.082	0.0009414586
22	8073	0.082	0.00049113337
22	8074	0.082	4.080814e-005
22	8075	0.082	0.000706125884
22	8076	0.082	0.000259456246
22	8151	0.083	0.000872785847
22	8152	0.083	0.000424003256
22	8153	0.083	0.000582515361
22	8154	0.083	0.000127170142
22	8155	0.083	0.000857003321
22	8156	0.083	0.000392918594
22	8157	0.083	0.00078283604
22	8158	0.083	0.00033356192
22	8159	0.083	0.000659745848
22	8160	0.083	0.000194546672
22	8161	0.083	0.000846548584
22	8162	0.083	0.000400062435
22	8163	0.083	0.000814710233
22	8164	0.083	0.000350386562
22	8165	0.083	0.000990581156
22	8166	0.083	0.000549670302
22	8167	0.083	0.000108759448
22	8168	0.083	0.00059048291
22	8169	0.083	0.00014015768
22	8170	0.083	0.000812786608
22	8171	0.083	0.00036611697
22	8254	0.084	0.000975220665
22	8255	0.084	0.000526438074
22	8256	0.084	0.000671824923
22	8257	0.084	0.000216479704
22	8258	0.084	0.000928833867
22	8259	0.084	0.00046474914
22	8260	0.084	6.64413e-007
22	8261	0.084	0.0008842878
22	8262	0.084	0.00043501368
22	8263	0.084	0.000729347496
22	8264	0.084	0.00026414832
22	8265	0.084	0.000953576286
22	8266	0.084	0.000507090137
22	8267	0.084	6.0603988e-005
22	8268	0.084	0.000886062891
22	8269	0.084	0.00042173922
22	8270	0.084	0.000667848594
22	8271	0.084	0.00022693774
22	8272	0.084	0.00068983245
22	8273	0.084	0.00023950722
22	8274	0.084	0.000919447332
22	8275	0.084	7.7655483e-005
22	8276	0.084	0.000472777694
22	8277	0.084	2.6108056e-005
22	8354	0.085	0.000628872892
22	8355	0.085	0.000180090301
22	8356	0.085	0.000761134485
22	8357	0.085	0.000305789266
22	8358	0.085	0.000536579686
22	8359	0.085	7.2494959e-005
22	8360	0.085	0.00098573956
22	8361	0.085	0.00053646544
22	8362	0.085	8.719132e-005
22	8363	0.085	0.000798949144
22	8364	0.085	0.000333749968
22	8365	0.085	0.000614117839
22	8366	0.085	0.00016763169
22	8367	0.085	0.000957415549
22	8368	0.085	0.000493091878
22	8369	0.085	2.8768207e-005
22	8370	0.085	0.000786026886
22	8371	0.085	0.000345116032
22	8372	0.085	0.00078918199
22	8373	0.085	0.00033885676
22	8374	0.085	0.000579438418
22	8375	0.085	0.00013276878
22	8450	0.086	0.00073130771
22	8451	0.086	0.000282525119
22	8452	0.086	0.000850444047
22	8453	0.086	0.000395098828
22	8454	0.086	0.000608410232
22	8455	0.086	0.000144325505
22	8456	0.086	0.0006379172
22	8457	0.086	0.00018864308
22	8458	0.086	0.000868550792
22	8459	0.086	0.000403351616
22	8460	0.086	0.000721145541
22	8461	0.086	0.000274659392
22	8462	0.086	0.000564444536
22	8463	0.086	0.000100120865
22	8464	0.086	0.000904205178
22	8465	0.086	0.000463294324
22	8466	0.086	2.238347e-005
22	8467	0.086	0.00088853153
22	8468	0.086	0.0004382063
22	8469	0.086	0.000686099142
22	8470	0.086	0.000239429504
22	8549	0.087	0.000833742528
22	8550	0.087	0.000384959937
22	8551	0.087	0.000939753609
22	8552	0.087	0.00048440839
22	8553	0.087	2.9063171e-005
22	8554	0.087	0.000680240778
22	8555	0.087	0.000216156051
22	8556	0.087	0.00073936896
22	8557	0.087	0.00029009484
22	8558	0.087	0.00093815244
22	8559	0.087	0.000472953264
22	8560	0.087	7.754088e-006
22	8561	0.087	0.000828173243
22	8562	0.087	0.000381687094
22	8563	0.087	0.000635797194
22	8564	0.087	0.000171473523
22	8565	0.087	0.000581472616
22	8566	0.087	0.000140561762
22	8567	0.087	0.00098788107
22	8568	0.087	0.00053755584
22	8569	0.087	8.723061e-005
22	8570	0.087	0.000792759866
22	8571	0.087	0.000346090228
22	8652	0.088	0.000936177346
22	8653	0.088	0.000487394755
22	8654	0.088	0.000573717952
22	8655	0.088	0.000118372733
22	8656	0.088	0.000752071324
22	8657	0.088	0.000287986597
22	8658	0.088	0.00084082072
22	8659	0.088	0.0003915466
22	8660	0.088	0.000542554912
22	8661	0.088	7.7355736e-005
22	8662	0.088	0.000935200945
22	8663	0.088	0.000488714796
22	8664	0.088	4.2228647e-005
22	8665	0.088	0.000707149852
22	8666	0.088	0.000242826181
22	8667	0.088	0.000699650908
22	8668	0.088	0.000258740054
22	8669	0.088	0.00063690538
22	8670	0.088	0.00018658015
22	8671	0.088	0.00089942059
22	8672	0.088	3.8612164e-005
22	8673	0.088	0.000452750952
22	8674	0.088	6.081314e-006
22	8749	0.089	0.000589829573
22	8750	0.089	0.000141046982
22	8751	0.089	0.000663027514
22	8752	0.089	0.000207682295
22	8753	0.089	0.00082390187
22	8754	0.089	0.000359817143
22	8755	0.089	0.00094227248
22	8756	0.089	0.00049299836
22	8757	0.089	4.372424e-005
22	8758	0.089	0.00061215656
22	8759	0.089	0.000146957384
22	8760	0.089	0.000595742498
22	8761	0.089	0.000149256349
22	8762	0.089	0.00077850251
22	8763	0.089	0.000314178839
22	8764	0.089	0.0008178292
22	8765	0.089	0.000376918346
22	8766	0.089	0.00073625492
22	8767	0.089	0.00028592969
22	8768	0.089	0.000559411676
22	8769	0.089	0.000112742038
22	8844	0.09	0.000692264391
22	8845	0.09	0.0002434818
22	8846	0.09	0.000752337076
22	8847	0.09	0.000296991857
22	8848	0.09	0.000895732416
22	8849	0.09	0.000431647689
22	8850	0.09	0.00059445012
22	8851	0.09	0.000145176
22	8852	0.09	0.000681758208
22	8853	0.09	0.000216559032
22	8854	0.09	0.0007027702
22	8855	0.09	0.000256284051
22	8856	0.09	0.000849855168
22	8857	0.09	0.000385531497
22	8858	0.09	0.000936007492
22	8859	0.09	0.000495096638
22	8860	0.09	5.4185784e-005
22	8861	0.09	0.00083560446
22	8862	0.09	0.00038527923
22	8863	0.09	0.0006660724
22	8864	0.09	0.000219402762
22	8941	0.091	0.000794699209
22	8942	0.091	0.000345916618
22	8943	0.091	0.000841646638
22	8944	0.091	0.000386301419
22	8945	0.091	0.000967562962
22	8946	0.091	0.000503478235
22	8947	0.091	3.9393508e-005
22	8948	0.091	0.00069590188
22	8949	0.091	0.00024662776
22	8950	0.091	0.000751359856
22	8951	0.091	0.00028616068
22	8952	0.091	0.000809797902
22	8953	0.091	0.000363311753
22	8954	0.091	0.000921207826
22	8955	0.091	0.000456884155
22	8956	0.091	0.00061327493
22	8957	0.091	0.000172364076
22	8958	0.091	0.000934954
22	8959	0.091	0.00048462877
22	8960	0.091	3.430354e-005
22	8961	0.091	0.000772733124
22	8962	0.091	0.000326063486
22	9041	0.092	0.000897134027
22	9042	0.092	0.000448351436
22	9043	0.092	0.0009309562
22	9044	0.092	0.000475610981
22	9045	0.092	2.0265762e-005
22	9046	0.092	0.000575308781
22	9047	0.092	0.000111224054
22	9048	0.092	0.00079735364
22	9049	0.092	0.00034807952
22	9050	0.092	0.000820961504
22	9051	0.092	0.000355762328
22	9052	0.092	0.000916825604
22	9053	0.092	0.000470339455
22	9054	0.092	2.3853306e-005
22	9055	0.092	0.000992560484
22	9056	0.092	0.000528236813
22	9057	0.092	6.3913142e-005
22	9058	0.092	0.000731453222
22	9059	0.092	0.000290542368
22	9060	0.092	0.00058397831
22	9061	0.092	0.00013365308
22	9062	0.092	0.000879393848
22	9063	0.092	0.00043272421
22	9144	0.093	0.000999568845
22	9145	0.093	0.000550786254
22	9146	0.093	0.000564920543
22	9147	0.093	0.000109575324
22	9148	0.093	0.000647139327
22	9149	0.093	0.0001830546
22	9150	0.093	0.0008988054
22	9151	0.093	0.00044953128
22	9152	0.093	2.5716e-007
22	9153	0.093	0.000890563152
22	9154	0.093	0.000425363976
22	9155	0.093	0.000577367157
22	9156	0.093	0.000130881008
22	9157	0.093	0.000599589471
22	9158	0.093	0.0001352658
22	9159	0.093	0.000849631514
22	9160	0.093	0.00040872066
22	9161	0.093	0.00068332785
22	9162	0.093	0.00023300262
22	9163	0.093	0.000986054572
22	9164	0.093	0.000102003663
22	9165	0.093	0.000539384934
22	9166	0.093	9.2715296e-005
22	9243	0.094	0.000653221072
22	9244	0.094	0.000204438481
22	9245	0.094	0.000654230105
22	9246	0.094	0.000198884886
22	9247	0.094	0.000718969873
22	9248	0.094	0.000254885146
22	9249	0.094	0.00055098304
22	9250	0.094	0.00010170892
22	9251	0.094	0.0009601648
22	9252	0.094	0.000494965624
22	9253	0.094	2.9766448e-005
22	9254	0.094	0.000684394859
22	9255	0.094	0.00023790871
22	9256	0.094	0.000670942129
22	9257	0.094	0.000206618458
22	9258	0.094	0.000967809806
22	9259	0.094	0.000526898952
22	9260	0.094	8.5988098e-005
22	9261	0.094	0.00078267739
22	9262	0.094	0.00033235216
22	9263	0.094	0.000646045658
22	9264	0.094	0.00019937602
22	9337	0.095	0.00075565589
22	9338	0.095	0.000306873299
22	9339	0.095	0.000743539667
22	9340	0.095	0.000288194448
22	9341	0.095	0.000790800419
22	9342	0.095	0.000326715692
22	9343	0.095	0.0006524348
22	9344	0.095	0.00020316068
22	9345	0.095	0.000564567272
22	9346	0.095	9.9368096e-005
22	9347	0.095	0.000791422561
22	9348	0.095	0.000344936412
22	9349	0.095	0.000742294787
22	9350	0.095	0.000277971116
22	9351	0.095	0.000645077244
22	9352	0.095	0.00020416639
22	9353	0.095	0.00088202693
22	9354	0.095	0.0004317017
22	9355	0.095	0.000752706382
22	9356	0.095	0.000306036744
22	9433	0.096	0.000858090708
22	9434	0.096	0.000409308117
22	9435	0.096	0.000832849229
22	9436	0.096	0.00037750401
22	9437	0.096	0.000862630965
22	9438	0.096	0.000398546238
22	9439	0.096	0.00075388656
22	9440	0.096	0.00030461244
22	9441	0.096	0.00063416892
22	9442	0.096	0.000168969744
22	9443	0.096	0.000898450263
22	9444	0.096	0.000451964114
22	9445	0.096	5.477965e-006
22	9446	0.096	0.000813647445
22	9447	0.096	0.000349323774
22	9448	0.096	0.000763255536
22	9449	0.096	0.000322344682
22	9450	0.096	0.00098137647
22	9451	0.096	0.00053105124
22	9452	0.096	8.072601e-005
22	9453	0.096	0.000859367106
22	9454	0.096	0.000412697468
22	9537	0.097	0.000960525526
22	9538	0.097	0.000511742935
22	9539	0.097	0.000922158791
22	9540	0.097	0.000466813572
22	9541	0.097	1.1468353e-005
22	9542	0.097	0.000934461511
22	9543	0.097	0.000470376784
22	9544	0.097	6.292057e-006
22	9545	0.097	0.00085533832
22	9546	0.097	0.0004060642
22	9547	0.097	0.000703770568
22	9548	0.097	0.000238571392
22	9549	0.097	0.000558991816
22	9550	0.097	0.000112505667
22	9551	0.097	0.000885000103
22	9552	0.097	0.000420676432
22	9553	0.097	0.000881433828
22	9554	0.097	0.000440522974
22	9555	0.097	0.00063040078
22	9556	0.097	0.00018007555
22	9557	0.097	0.00096602783
22	9558	0.097	6.2960344e-005
22	9559	0.097	0.000519358192
22	9560	0.097	7.2688554e-005
22	9639	0.098	0.000614177753
22	9640	0.098	0.000165395162
22	9641	0.098	0.000556123134
22	9642	0.098	0.000100777915
22	9643	0.098	0.00054220733
22	9644	0.098	7.8122603e-005
22	9645	0.098	0.00095679008
22	9646	0.098	0.00050751596
22	9647	0.098	5.824184e-005
22	9648	0.098	0.000773372216
22	9649	0.098	0.00030817304
22	9650	0.098	0.000666019518
22	9651	0.098	0.000219533369
22	9652	0.098	0.000956352761
22	9653	0.098	0.00049202909
22	9654	0.098	2.7705419e-005
22	9655	0.098	0.00099961212
22	9656	0.098	0.000558701266
22	9657	0.098	0.000117790412
22	9658	0.098	0.00072975032
22	9659	0.098	0.00027942509
22	9660	0.098	0.000626018916
22	9661	0.098	0.000179349278
22	9734	0.099	0.000716612571
22	9735	0.099	0.00026782998
22	9736	0.099	0.000645432696
22	9737	0.099	0.000190087477
22	9738	0.099	0.000614037876
22	9739	0.099	0.000149953149
22	9740	0.099	0.00060896772
22	9741	0.099	0.0001596936
22	9742	0.099	0.000842973864
22	9743	0.099	0.000377774688
22	9744	0.099	0.00077304722
22	9745	0.099	0.000326561071
22	9746	0.099	0.000563381748
22	9747	0.099	9.9058077e-005
22	9748	0.099	0.000676879558
22	9749	0.099	0.000235968704
22	9750	0.099	0.00082909986
22	9751	0.099	0.00037877463
22	9752	0.099	0.00073267964
22	9753	0.099	0.000286010002
22	9828	0.1	0.000819047389
22	9829	0.1	0.000370264798
22	9830	0.1	0.000734742258
22	9831	0.1	0.000279397039
22	9832	0.1	0.000685868422
22	9833	0.1	0.000221783695
22	9834	0.1	0.00071041948
22	9835	0.1	0.00026114536
22	9836	0.1	0.000912575512
22	9837	0.1	0.000447376336
22	9838	0.1	0.000880074922
22	9839	0.1	0.000433588773
22	9840	0.1	0.000634734406
22	9841	0.1	0.000170410735
22	9842	0.1	0.00079505785
22	9843	0.1	0.000354146996
22	9844	0.1	0.0009284494
22	9845	0.1	0.00047812417
22	9846	0.1	2.779894e-005
22	9847	0.1	0.000839340364
22	9848	0.1	0.000392670726
22	9933	0.101	0.000921482207
22	9934	0.101	0.000472699616
22	9935	0.101	0.00082405182
22	9936	0.101	0.000368706601
22	9937	0.101	0.000757698968
22	9938	0.101	0.000293614241
22	9939	0.101	0.00081187124
22	9940	0.101	0.00036259712
22	9941	0.101	0.00098217716
22	9942	0.101	0.000516977984
22	9943	0.101	5.1778808e-005
22	9944	0.101	0.000987102624
22	9945	0.101	0.000540616475
22	9946	0.101	9.4130326e-005
22	9947	0.101	0.000706087064
22	9948	0.101	0.000241763393
22	9949	0.101	0.000913236142
22	9950	0.101	0.000472325288
22	9951	0.101	3.1414434e-005
22	9952	0.101	0.00057747371
22	9953	0.101	0.00012714848
22	9954	0.101	0.000946001088
22	9955	0.101	2.3917025e-005
22	9956	0.101	0.00049933145
22	9957	0.101	5.2661812e-005

