version 2
run _10UsersSetupPF-0-20201130-19:14:53-1288
attr configname _10UsersSetupPF
attr datetime 20201130-19:14:53
attr experiment _10UsersSetupPF
attr inifile omnetpp.ini
attr iterationvars ""
attr iterationvarsf ""
attr measurement ""
attr network Network
attr processid 1288
attr repetition 0
attr replication #0
attr resultdir results
attr runnumber 0
attr seedset 0
param **.algorithm "\"pf\""
param **.usersCount 10
param **.channelsCount 30
param **.networkLoad 0.9
param **.scheduler.generateInterval 1ms
param **.gen.generateInterval "triang(0.9ms, 1.0ms, 1.1ms)"
param **.user[0].radioLinkQuality 1
param **.user[1].radioLinkQuality 2
param **.user[2].radioLinkQuality 4
param **.user[3].radioLinkQuality 8
param **.user[4].radioLinkQuality 1
param **.user[5].radioLinkQuality 2
param **.user[6].radioLinkQuality 4
param **.user[7].radioLinkQuality 8
param **.user[8].radioLinkQuality 1
param **.user[9].radioLinkQuality 2
param **.user[0].gen.startingMessage 0
param **.user[1].gen.startingMessage 100
param **.user[2].gen.startingMessage 200
param **.user[3].gen.startingMessage 300
param **.user[4].gen.startingMessage 400
param **.user[5].gen.startingMessage 500
param **.user[6].gen.startingMessage 600
param **.user[7].gen.startingMessage 700
param **.user[8].gen.startingMessage 800
param **.user[9].gen.startingMessage 900

vector 0 Network.user[0].queue "Queue before scheduler's run." ETV
vector 1 Network.user[1].queue "Queue before scheduler's run." ETV
vector 2 Network.user[2].queue "Queue before scheduler's run." ETV
vector 3 Network.user[3].queue "Queue before scheduler's run." ETV
vector 4 Network.user[4].queue "Queue before scheduler's run." ETV
vector 5 Network.user[5].queue "Queue before scheduler's run." ETV
vector 6 Network.user[6].queue "Queue before scheduler's run." ETV
vector 7 Network.user[7].queue "Queue before scheduler's run." ETV
vector 8 Network.user[8].queue "Queue before scheduler's run." ETV
vector 9 Network.user[9].queue "Queue before scheduler's run." ETV
vector 10 Network.scheduler "Scheduler free channels" ETV
vector 11 Network.scheduler "Total users' queues lengths" ETV
vector 12 Network.user[7].queue "Queue after scheduler's run." ETV
vector 13 Network.user[3].queue "Queue after scheduler's run." ETV
vector 14 Network.user[6].queue "Queue after scheduler's run." ETV
vector 15 Network.user[2].queue "Queue after scheduler's run." ETV
vector 16 Network.user[9].queue "Queue after scheduler's run." ETV
vector 17 Network.user[5].queue "Queue after scheduler's run." ETV
vector 18 Network.user[1].queue "Queue after scheduler's run." ETV
vector 19 Network.user[8].queue "Queue after scheduler's run." ETV
vector 20 Network.user[4].queue "Queue after scheduler's run." ETV
vector 21 Network.user[0].queue "Queue after scheduler's run." ETV
vector 22 Network.sink lifetime:vector ETV
attr interpolationmode none
attr title "lifetime of arrived jobs, vector"
attr unit s
0	42	0.001	2
0	156	0.002	3
0	276	0.003	3
0	389	0.004	2
0	504	0.005	3
0	626	0.006	3
0	745	0.007	2
0	860	0.008	3
0	980	0.009	3
0	1093	0.01	2
0	1208	0.011	3
0	1331	0.012	3
0	1445	0.013	2
0	1564	0.014	3
0	1683	0.015	3
0	1799	0.016	2
0	1913	0.017	3
0	2033	0.018	3
0	2155	0.019	3
0	2269	0.02	2
0	2389	0.021	3
0	2503	0.022	3
0	2618	0.023	2
0	2741	0.024	3
0	2857	0.025	3
0	2974	0.026	2
0	3091	0.027	3
0	3209	0.028	3
0	3322	0.029	2
0	3441	0.03	3
0	3561	0.031	3
0	3678	0.032	2
0	3796	0.033	3
0	3910	0.034	3
0	4032	0.035	3
0	4150	0.036	2
0	4262	0.037	3
0	4386	0.038	3
0	4502	0.039	2
0	4616	0.04	3
0	4736	0.041	3
0	4853	0.042	2
0	4970	0.043	3
0	5086	0.044	3
0	5205	0.045	2
0	5320	0.046	3
0	5438	0.047	3
0	5559	0.048	2
0	5675	0.049	3
0	5794	0.05	3
0	5911	0.051	3
0	6029	0.052	2
0	6146	0.053	3
0	6264	0.054	3
0	6379	0.055	2
0	6495	0.056	3
0	6619	0.057	3
0	6731	0.058	2
0	6847	0.059	3
0	6971	0.06	3
0	7085	0.061	2
0	7201	0.062	3
0	7319	0.063	3
0	7439	0.064	2
0	7554	0.065	3
0	7670	0.066	3
0	7790	0.067	2
0	7906	0.068	3
0	8023	0.069	3
0	8142	0.07	3
0	8261	0.071	2
0	8377	0.072	3
0	8494	0.073	3
0	8612	0.074	2
0	8727	0.075	3
0	8848	0.076	3
0	8962	0.077	2
0	9079	0.078	3
0	9204	0.079	3
0	9318	0.08	2
0	9431	0.081	3
0	9554	0.082	3
0	9671	0.083	2
0	9785	0.084	3
0	9906	0.085	3
1	43	0.001	2
1	157	0.002	3
1	277	0.003	3
1	390	0.004	2
1	505	0.005	3
1	627	0.006	3
1	746	0.007	2
1	861	0.008	3
1	981	0.009	3
1	1094	0.01	2
1	1209	0.011	3
1	1332	0.012	3
1	1446	0.013	2
1	1565	0.014	3
1	1684	0.015	3
1	1800	0.016	2
1	1914	0.017	3
1	2034	0.018	3
1	2156	0.019	2
1	2270	0.02	3
1	2390	0.021	3
1	2504	0.022	2
1	2619	0.023	3
1	2742	0.024	3
1	2858	0.025	2
1	2975	0.026	3
1	3092	0.027	3
1	3210	0.028	2
1	3323	0.029	3
1	3442	0.03	3
1	3562	0.031	2
1	3679	0.032	3
1	3797	0.033	3
1	3911	0.034	2
1	4033	0.035	3
1	4151	0.036	3
1	4263	0.037	2
1	4387	0.038	3
1	4503	0.039	3
1	4617	0.04	2
1	4737	0.041	3
1	4854	0.042	3
1	4971	0.043	2
1	5087	0.044	3
1	5206	0.045	3
1	5321	0.046	2
1	5439	0.047	3
1	5560	0.048	3
1	5676	0.049	3
1	5795	0.05	2
1	5912	0.051	3
1	6030	0.052	3
1	6147	0.053	2
1	6265	0.054	3
1	6380	0.055	3
1	6496	0.056	2
1	6620	0.057	3
1	6732	0.058	3
1	6848	0.059	2
1	6972	0.06	3
1	7086	0.061	3
1	7202	0.062	2
1	7320	0.063	3
1	7440	0.064	3
1	7555	0.065	2
1	7671	0.066	3
1	7791	0.067	3
1	7907	0.068	2
1	8024	0.069	3
1	8143	0.07	3
1	8262	0.071	2
1	8378	0.072	3
1	8495	0.073	3
1	8613	0.074	2
1	8728	0.075	3
1	8849	0.076	3
1	8963	0.077	2
1	9080	0.078	3
1	9205	0.079	3
1	9319	0.08	2
1	9432	0.081	3
1	9555	0.082	3
1	9672	0.083	2
1	9786	0.084	3
1	9907	0.085	3
2	44	0.001	2
2	158	0.002	3
2	278	0.003	2
2	391	0.004	3
2	506	0.005	3
2	628	0.006	2
2	747	0.007	3
2	862	0.008	3
2	982	0.009	2
2	1095	0.01	3
2	1210	0.011	2
2	1333	0.012	3
2	1447	0.013	3
2	1566	0.014	2
2	1685	0.015	3
2	1801	0.016	3
2	1915	0.017	2
2	2035	0.018	3
2	2157	0.019	3
2	2271	0.02	2
2	2391	0.021	3
2	2505	0.022	2
2	2620	0.023	3
2	2743	0.024	3
2	2859	0.025	2
2	2976	0.026	3
2	3093	0.027	3
2	3211	0.028	2
2	3324	0.029	3
2	3443	0.03	3
2	3563	0.031	2
2	3680	0.032	3
2	3798	0.033	2
2	3912	0.034	3
2	4034	0.035	3
2	4152	0.036	2
2	4264	0.037	3
2	4388	0.038	3
2	4504	0.039	2
2	4618	0.04	3
2	4738	0.041	3
2	4855	0.042	2
2	4972	0.043	3
2	5088	0.044	2
2	5207	0.045	3
2	5322	0.046	3
2	5440	0.047	2
2	5561	0.048	3
2	5677	0.049	3
2	5796	0.05	2
2	5913	0.051	3
2	6031	0.052	3
2	6148	0.053	2
2	6266	0.054	3
2	6381	0.055	2
2	6497	0.056	3
2	6621	0.057	3
2	6733	0.058	2
2	6849	0.059	3
2	6973	0.06	3
2	7087	0.061	2
2	7203	0.062	3
2	7321	0.063	3
2	7441	0.064	2
2	7556	0.065	3
2	7672	0.066	2
2	7792	0.067	3
2	7908	0.068	3
2	8025	0.069	2
2	8144	0.07	3
2	8263	0.071	3
2	8379	0.072	2
2	8496	0.073	3
2	8614	0.074	3
2	8729	0.075	2
2	8850	0.076	3
2	8964	0.077	2
2	9081	0.078	3
2	9206	0.079	3
2	9320	0.08	2
2	9433	0.081	3
2	9556	0.082	3
2	9673	0.083	2
2	9787	0.084	3
2	9908	0.085	3
3	45	0.001	2
3	159	0.002	3
3	279	0.003	2
3	392	0.004	3
3	507	0.005	2
3	629	0.006	3
3	748	0.007	3
3	863	0.008	2
3	983	0.009	3
3	1096	0.01	2
3	1211	0.011	3
3	1334	0.012	3
3	1448	0.013	2
3	1567	0.014	3
3	1686	0.015	2
3	1802	0.016	3
3	1916	0.017	2
3	2036	0.018	3
3	2158	0.019	3
3	2272	0.02	2
3	2392	0.021	3
3	2506	0.022	2
3	2621	0.023	3
3	2744	0.024	3
3	2860	0.025	2
3	2977	0.026	3
3	3094	0.027	2
3	3212	0.028	3
3	3325	0.029	2
3	3444	0.03	3
3	3564	0.031	3
3	3681	0.032	2
3	3799	0.033	3
3	3913	0.034	2
3	4035	0.035	3
3	4153	0.036	3
3	4265	0.037	2
3	4389	0.038	3
3	4505	0.039	2
3	4619	0.04	3
3	4739	0.041	3
3	4856	0.042	2
3	4973	0.043	3
3	5089	0.044	2
3	5208	0.045	3
3	5323	0.046	2
3	5441	0.047	3
3	5562	0.048	3
3	5678	0.049	2
3	5797	0.05	3
3	5914	0.051	2
3	6032	0.052	3
3	6149	0.053	3
3	6267	0.054	2
3	6382	0.055	3
3	6498	0.056	2
3	6622	0.057	3
3	6734	0.058	2
3	6850	0.059	3
3	6974	0.06	3
3	7088	0.061	2
3	7204	0.062	3
3	7322	0.063	2
3	7442	0.064	3
3	7557	0.065	3
3	7673	0.066	2
3	7793	0.067	3
3	7909	0.068	2
3	8026	0.069	3
3	8145	0.07	3
3	8264	0.071	2
3	8380	0.072	3
3	8497	0.073	2
3	8615	0.074	3
3	8730	0.075	2
3	8851	0.076	3
3	8965	0.077	3
3	9082	0.078	2
3	9207	0.079	3
3	9321	0.08	2
3	9434	0.081	3
3	9557	0.082	3
3	9674	0.083	2
3	9788	0.084	3
3	9909	0.085	2
4	46	0.001	2
4	160	0.002	3
4	280	0.003	3
4	393	0.004	2
4	508	0.005	3
4	630	0.006	3
4	749	0.007	2
4	864	0.008	3
4	984	0.009	3
4	1097	0.01	2
4	1212	0.011	3
4	1335	0.012	3
4	1449	0.013	2
4	1568	0.014	3
4	1687	0.015	3
4	1803	0.016	2
4	1917	0.017	3
4	2037	0.018	3
4	2159	0.019	2
4	2273	0.02	3
4	2393	0.021	3
4	2507	0.022	2
4	2622	0.023	3
4	2745	0.024	3
4	2861	0.025	2
4	2978	0.026	3
4	3095	0.027	3
4	3213	0.028	2
4	3326	0.029	3
4	3445	0.03	3
4	3565	0.031	2
4	3682	0.032	3
4	3800	0.033	3
4	3914	0.034	2
4	4036	0.035	3
4	4154	0.036	3
4	4266	0.037	2
4	4390	0.038	3
4	4506	0.039	3
4	4620	0.04	2
4	4740	0.041	3
4	4857	0.042	3
4	4974	0.043	2
4	5090	0.044	3
4	5209	0.045	3
4	5324	0.046	2
4	5442	0.047	3
4	5563	0.048	3
4	5679	0.049	2
4	5798	0.05	3
4	5915	0.051	3
4	6033	0.052	2
4	6150	0.053	3
4	6268	0.054	3
4	6383	0.055	2
4	6499	0.056	3
4	6623	0.057	3
4	6735	0.058	2
4	6851	0.059	3
4	6975	0.06	3
4	7089	0.061	2
4	7205	0.062	3
4	7323	0.063	3
4	7443	0.064	2
4	7558	0.065	3
4	7674	0.066	3
4	7794	0.067	2
4	7910	0.068	3
4	8027	0.069	3
4	8146	0.07	2
4	8265	0.071	3
4	8381	0.072	3
4	8498	0.073	2
4	8616	0.074	3
4	8731	0.075	3
4	8852	0.076	2
4	8966	0.077	3
4	9083	0.078	3
4	9208	0.079	3
4	9322	0.08	2
4	9435	0.081	3
4	9558	0.082	3
4	9675	0.083	2
4	9789	0.084	3
4	9910	0.085	3
5	47	0.001	2
5	161	0.002	3
5	281	0.003	2
5	394	0.004	3
5	509	0.005	2
5	631	0.006	3
5	750	0.007	3
5	865	0.008	2
5	985	0.009	3
5	1098	0.01	2
5	1213	0.011	3
5	1336	0.012	2
5	1450	0.013	3
5	1569	0.014	3
5	1688	0.015	2
5	1804	0.016	3
5	1918	0.017	2
5	2038	0.018	3
5	2160	0.019	3
5	2274	0.02	2
5	2394	0.021	3
5	2508	0.022	2
5	2623	0.023	3
5	2746	0.024	2
5	2862	0.025	3
5	2979	0.026	3
5	3096	0.027	2
5	3214	0.028	3
5	3327	0.029	2
5	3446	0.03	3
5	3566	0.031	2
5	3683	0.032	3
5	3801	0.033	3
5	3915	0.034	2
5	4037	0.035	3
5	4155	0.036	2
5	4267	0.037	3
5	4391	0.038	3
5	4507	0.039	2
5	4621	0.04	3
5	4741	0.041	2
5	4858	0.042	3
5	4975	0.043	2
5	5091	0.044	3
5	5210	0.045	3
5	5325	0.046	2
5	5443	0.047	3
5	5564	0.048	2
5	5680	0.049	3
5	5799	0.05	2
5	5916	0.051	3
5	6034	0.052	3
5	6151	0.053	2
5	6269	0.054	3
5	6384	0.055	2
5	6500	0.056	3
5	6624	0.057	3
5	6736	0.058	2
5	6852	0.059	3
5	6976	0.06	2
5	7090	0.061	3
5	7206	0.062	2
5	7324	0.063	3
5	7444	0.064	3
5	7559	0.065	2
5	7675	0.066	3
5	7795	0.067	2
5	7911	0.068	3
5	8028	0.069	2
5	8147	0.07	3
5	8266	0.071	3
5	8382	0.072	2
5	8499	0.073	3
5	8617	0.074	2
5	8732	0.075	3
5	8853	0.076	3
5	8967	0.077	2
5	9084	0.078	3
5	9209	0.079	2
5	9323	0.08	3
5	9436	0.081	2
5	9559	0.082	3
5	9676	0.083	3
5	9790	0.084	2
5	9911	0.085	3
6	48	0.001	2
6	162	0.002	3
6	282	0.003	3
6	395	0.004	2
6	510	0.005	3
6	632	0.006	3
6	751	0.007	2
6	866	0.008	3
6	986	0.009	3
6	1099	0.01	2
6	1214	0.011	3
6	1337	0.012	3
6	1451	0.013	2
6	1570	0.014	3
6	1689	0.015	3
6	1805	0.016	3
6	1919	0.017	2
6	2039	0.018	3
6	2161	0.019	3
6	2275	0.02	2
6	2395	0.021	3
6	2509	0.022	3
6	2624	0.023	2
6	2747	0.024	3
6	2863	0.025	3
6	2980	0.026	2
6	3097	0.027	3
6	3215	0.028	3
6	3328	0.029	2
6	3447	0.03	3
6	3567	0.031	3
6	3684	0.032	3
6	3802	0.033	2
6	3916	0.034	3
6	4038	0.035	3
6	4156	0.036	2
6	4268	0.037	3
6	4392	0.038	3
6	4508	0.039	2
6	4622	0.04	3
6	4742	0.041	3
6	4859	0.042	2
6	4976	0.043	3
6	5092	0.044	3
6	5211	0.045	2
6	5326	0.046	3
6	5444	0.047	3
6	5565	0.048	3
6	5681	0.049	2
6	5800	0.05	3
6	5917	0.051	3
6	6035	0.052	2
6	6152	0.053	3
6	6270	0.054	3
6	6385	0.055	2
6	6501	0.056	3
6	6625	0.057	3
6	6737	0.058	2
6	6853	0.059	3
6	6977	0.06	3
6	7091	0.061	2
6	7207	0.062	3
6	7325	0.063	3
6	7445	0.064	3
6	7560	0.065	2
6	7676	0.066	3
6	7796	0.067	3
6	7912	0.068	2
6	8029	0.069	3
6	8148	0.07	3
6	8267	0.071	2
6	8383	0.072	3
6	8500	0.073	3
6	8618	0.074	2
6	8733	0.075	3
6	8854	0.076	3
6	8968	0.077	2
6	9085	0.078	3
6	9210	0.079	3
6	9324	0.08	3
6	9437	0.081	2
6	9560	0.082	3
6	9677	0.083	3
6	9791	0.084	2
6	9912	0.085	3
7	49	0.001	2
7	163	0.002	3
7	283	0.003	2
7	396	0.004	3
7	511	0.005	2
7	633	0.006	3
7	752	0.007	3
7	867	0.008	2
7	987	0.009	3
7	1100	0.01	2
7	1215	0.011	3
7	1338	0.012	3
7	1452	0.013	2
7	1571	0.014	3
7	1690	0.015	2
7	1806	0.016	3
7	1920	0.017	2
7	2040	0.018	3
7	2162	0.019	3
7	2276	0.02	2
7	2396	0.021	3
7	2510	0.022	2
7	2625	0.023	3
7	2748	0.024	3
7	2864	0.025	2
7	2981	0.026	3
7	3098	0.027	2
7	3216	0.028	3
7	3329	0.029	2
7	3448	0.03	3
7	3568	0.031	3
7	3685	0.032	2
7	3803	0.033	3
7	3917	0.034	2
7	4039	0.035	3
7	4157	0.036	3
7	4269	0.037	2
7	4393	0.038	3
7	4509	0.039	2
7	4623	0.04	3
7	4743	0.041	2
7	4860	0.042	3
7	4977	0.043	3
7	5093	0.044	2
7	5212	0.045	3
7	5327	0.046	2
7	5445	0.047	3
7	5566	0.048	3
7	5682	0.049	2
7	5801	0.05	3
7	5918	0.051	2
7	6036	0.052	3
7	6153	0.053	2
7	6271	0.054	3
7	6386	0.055	3
7	6502	0.056	2
7	6626	0.057	3
7	6738	0.058	2
7	6854	0.059	3
7	6978	0.06	3
7	7092	0.061	2
7	7208	0.062	3
7	7326	0.063	2
7	7446	0.064	3
7	7561	0.065	2
7	7677	0.066	3
7	7797	0.067	3
7	7913	0.068	2
7	8030	0.069	3
7	8149	0.07	2
7	8268	0.071	3
7	8384	0.072	3
7	8501	0.073	2
7	8619	0.074	3
7	8734	0.075	2
7	8855	0.076	3
7	8969	0.077	2
7	9086	0.078	3
7	9211	0.079	3
7	9325	0.08	2
7	9438	0.081	3
7	9561	0.082	2
7	9678	0.083	3
7	9792	0.084	3
7	9913	0.085	2
8	50	0.001	2
8	164	0.002	3
8	284	0.003	3
8	397	0.004	2
8	512	0.005	3
8	634	0.006	3
8	753	0.007	3
8	868	0.008	2
8	988	0.009	3
8	1101	0.01	3
8	1216	0.011	2
8	1339	0.012	3
8	1453	0.013	3
8	1572	0.014	3
8	1691	0.015	2
8	1807	0.016	3
8	1921	0.017	3
8	2041	0.018	2
8	2163	0.019	3
8	2277	0.02	3
8	2397	0.021	3
8	2511	0.022	2
8	2626	0.023	3
8	2749	0.024	3
8	2865	0.025	3
8	2982	0.026	2
8	3099	0.027	3
8	3217	0.028	3
8	3330	0.029	2
8	3449	0.03	3
8	3569	0.031	3
8	3686	0.032	3
8	3804	0.033	2
8	3918	0.034	3
8	4040	0.035	3
8	4158	0.036	2
8	4270	0.037	3
8	4394	0.038	3
8	4510	0.039	3
8	4624	0.04	2
8	4744	0.041	3
8	4861	0.042	3
8	4978	0.043	3
8	5094	0.044	2
8	5213	0.045	3
8	5328	0.046	3
8	5446	0.047	2
8	5567	0.048	3
8	5683	0.049	3
8	5802	0.05	3
8	5919	0.051	2
8	6037	0.052	3
8	6154	0.053	3
8	6272	0.054	2
8	6387	0.055	3
8	6503	0.056	3
8	6627	0.057	3
8	6739	0.058	2
8	6855	0.059	3
8	6979	0.06	3
8	7093	0.061	3
8	7209	0.062	2
8	7327	0.063	3
8	7447	0.064	3
8	7562	0.065	2
8	7678	0.066	3
8	7798	0.067	3
8	7914	0.068	3
8	8031	0.069	2
8	8150	0.07	3
8	8269	0.071	3
8	8385	0.072	2
8	8502	0.073	3
8	8620	0.074	3
8	8735	0.075	3
8	8856	0.076	2
8	8970	0.077	3
8	9087	0.078	3
8	9212	0.079	3
8	9326	0.08	2
8	9439	0.081	3
8	9562	0.082	3
8	9679	0.083	2
8	9793	0.084	3
8	9914	0.085	3
9	51	0.001	2
9	165	0.002	3
9	285	0.003	2
9	398	0.004	3
9	513	0.005	3
9	635	0.006	2
9	754	0.007	3
9	869	0.008	3
9	989	0.009	2
9	1102	0.01	3
9	1217	0.011	3
9	1340	0.012	2
9	1454	0.013	3
9	1573	0.014	3
9	1692	0.015	2
9	1808	0.016	3
9	1922	0.017	3
9	2042	0.018	2
9	2164	0.019	3
9	2278	0.02	3
9	2398	0.021	2
9	2512	0.022	3
9	2627	0.023	3
9	2750	0.024	2
9	2866	0.025	3
9	2983	0.026	3
9	3100	0.027	2
9	3218	0.028	3
9	3331	0.029	3
9	3450	0.03	2
9	3570	0.031	3
9	3687	0.032	3
9	3805	0.033	2
9	3919	0.034	3
9	4041	0.035	3
9	4159	0.036	2
9	4271	0.037	3
9	4395	0.038	3
9	4511	0.039	2
9	4625	0.04	3
9	4745	0.041	3
9	4862	0.042	2
9	4979	0.043	3
9	5095	0.044	3
9	5214	0.045	2
9	5329	0.046	3
9	5447	0.047	3
9	5568	0.048	2
9	5684	0.049	3
9	5803	0.05	3
9	5920	0.051	2
9	6038	0.052	3
9	6155	0.053	3
9	6273	0.054	2
9	6388	0.055	3
9	6504	0.056	3
9	6628	0.057	2
9	6740	0.058	3
9	6856	0.059	3
9	6980	0.06	2
9	7094	0.061	3
9	7210	0.062	3
9	7328	0.063	2
9	7448	0.064	3
9	7563	0.065	3
9	7679	0.066	2
9	7799	0.067	3
9	7915	0.068	3
9	8032	0.069	2
9	8151	0.07	3
9	8270	0.071	3
9	8386	0.072	2
9	8503	0.073	3
9	8621	0.074	3
9	8736	0.075	2
9	8857	0.076	3
9	8971	0.077	3
9	9088	0.078	2
9	9213	0.079	3
9	9327	0.08	3
9	9440	0.081	2
9	9563	0.082	3
9	9680	0.083	3
9	9794	0.084	2
9	9915	0.085	3
10	61	0.001	10
10	175	0.002	0
10	295	0.003	5
10	408	0.004	5
10	523	0.005	3
10	645	0.006	2
10	764	0.007	4
10	879	0.008	4
10	999	0.009	2
10	1112	0.01	7
10	1227	0.011	2
10	1350	0.012	2
10	1464	0.013	6
10	1583	0.014	1
10	1702	0.015	5
10	1818	0.016	3
10	1932	0.017	5
10	2052	0.018	2
10	2174	0.019	2
10	2288	0.02	6
10	2408	0.021	1
10	2522	0.022	7
10	2637	0.023	2
10	2760	0.024	2
10	2876	0.025	5
10	2993	0.026	3
10	3110	0.027	4
10	3228	0.028	3
10	3341	0.029	6
10	3460	0.03	1
10	3580	0.031	4
10	3697	0.032	3
10	3815	0.033	4
10	3929	0.034	5
10	4051	0.035	0
10	4169	0.036	6
10	4281	0.037	4
10	4405	0.038	0
10	4521	0.039	7
10	4635	0.04	3
10	4755	0.041	2
10	4872	0.042	5
10	4989	0.043	3
10	5105	0.044	4
10	5224	0.045	3
10	5339	0.046	5
10	5457	0.047	2
10	5578	0.048	3
10	5694	0.049	4
10	5813	0.05	3
10	5930	0.051	4
10	6048	0.052	3
10	6165	0.053	4
10	6283	0.054	3
10	6398	0.055	5
10	6514	0.056	3
10	6638	0.057	1
10	6750	0.058	8
10	6866	0.059	1
10	6990	0.06	2
10	7104	0.061	6
10	7220	0.062	3
10	7338	0.063	3
10	7458	0.064	3
10	7573	0.065	5
10	7689	0.066	3
10	7809	0.067	3
10	7925	0.068	4
10	8042	0.069	4
10	8161	0.07	2
10	8280	0.071	4
10	8396	0.072	4
10	8513	0.073	3
10	8631	0.074	4
10	8746	0.075	4
10	8867	0.076	2
10	8981	0.077	6
10	9098	0.078	2
10	9223	0.079	1
10	9337	0.08	7
10	9450	0.081	3
10	9573	0.082	1
10	9690	0.083	6
10	9804	0.084	3
10	9925	0.085	2
11	61	0.001	0
11	175	0.002	0
11	295	0.003	0
11	408	0.004	0
11	523	0.005	0
11	645	0.006	0
11	764	0.007	0
11	879	0.008	0
11	999	0.009	0
11	1112	0.01	0
11	1227	0.011	0
11	1350	0.012	0
11	1464	0.013	0
11	1583	0.014	0
11	1702	0.015	0
11	1818	0.016	0
11	1932	0.017	0
11	2052	0.018	0
11	2174	0.019	0
11	2288	0.02	0
11	2408	0.021	0
11	2522	0.022	0
11	2637	0.023	0
11	2760	0.024	0
11	2876	0.025	0
11	2993	0.026	0
11	3110	0.027	0
11	3228	0.028	0
11	3341	0.029	0
11	3460	0.03	0
11	3580	0.031	0
11	3697	0.032	0
11	3815	0.033	0
11	3929	0.034	0
11	4051	0.035	0
11	4169	0.036	0
11	4281	0.037	0
11	4405	0.038	0
11	4521	0.039	0
11	4635	0.04	0
11	4755	0.041	0
11	4872	0.042	0
11	4989	0.043	0
11	5105	0.044	0
11	5224	0.045	0
11	5339	0.046	0
11	5457	0.047	0
11	5578	0.048	0
11	5694	0.049	0
11	5813	0.05	0
11	5930	0.051	0
11	6048	0.052	0
11	6165	0.053	0
11	6283	0.054	0
11	6398	0.055	0
11	6514	0.056	0
11	6638	0.057	0
11	6750	0.058	0
11	6866	0.059	0
11	6990	0.06	0
11	7104	0.061	0
11	7220	0.062	0
11	7338	0.063	0
11	7458	0.064	0
11	7573	0.065	0
11	7689	0.066	0
11	7809	0.067	0
11	7925	0.068	0
11	8042	0.069	0
11	8161	0.07	0
11	8280	0.071	0
11	8396	0.072	0
11	8513	0.073	0
11	8631	0.074	0
11	8746	0.075	0
11	8867	0.076	0
11	8981	0.077	0
11	9098	0.078	0
11	9223	0.079	0
11	9337	0.08	0
11	9450	0.081	0
11	9573	0.082	0
11	9690	0.083	0
11	9804	0.084	0
11	9925	0.085	0
12	62	0.001	0
12	176	0.002	0
12	296	0.003	0
12	409	0.004	0
12	524	0.005	0
12	646	0.006	0
12	765	0.007	0
12	880	0.008	0
12	1000	0.009	0
12	1113	0.01	0
12	1228	0.011	0
12	1351	0.012	0
12	1465	0.013	0
12	1584	0.014	0
12	1703	0.015	0
12	1819	0.016	0
12	1933	0.017	0
12	2053	0.018	0
12	2175	0.019	0
12	2289	0.02	0
12	2409	0.021	0
12	2523	0.022	0
12	2638	0.023	0
12	2761	0.024	0
12	2877	0.025	0
12	2994	0.026	0
12	3111	0.027	0
12	3229	0.028	0
12	3342	0.029	0
12	3461	0.03	0
12	3581	0.031	0
12	3698	0.032	0
12	3816	0.033	0
12	3930	0.034	0
12	4052	0.035	0
12	4170	0.036	0
12	4282	0.037	0
12	4406	0.038	0
12	4522	0.039	0
12	4636	0.04	0
12	4756	0.041	0
12	4873	0.042	0
12	4990	0.043	0
12	5106	0.044	0
12	5225	0.045	0
12	5340	0.046	0
12	5458	0.047	0
12	5579	0.048	0
12	5695	0.049	0
12	5814	0.05	0
12	5931	0.051	0
12	6049	0.052	0
12	6166	0.053	0
12	6284	0.054	0
12	6399	0.055	0
12	6515	0.056	0
12	6639	0.057	0
12	6751	0.058	0
12	6867	0.059	0
12	6991	0.06	0
12	7105	0.061	0
12	7221	0.062	0
12	7339	0.063	0
12	7459	0.064	0
12	7574	0.065	0
12	7690	0.066	0
12	7810	0.067	0
12	7926	0.068	0
12	8043	0.069	0
12	8162	0.07	0
12	8281	0.071	0
12	8397	0.072	0
12	8514	0.073	0
12	8632	0.074	0
12	8747	0.075	0
12	8868	0.076	0
12	8982	0.077	0
12	9099	0.078	0
12	9224	0.079	0
12	9338	0.08	0
12	9451	0.081	0
12	9574	0.082	0
12	9691	0.083	0
12	9805	0.084	0
12	9926	0.085	0
13	63	0.001	0
13	177	0.002	0
13	297	0.003	0
13	410	0.004	0
13	525	0.005	0
13	647	0.006	0
13	766	0.007	0
13	881	0.008	0
13	1001	0.009	0
13	1114	0.01	0
13	1229	0.011	0
13	1352	0.012	0
13	1466	0.013	0
13	1585	0.014	0
13	1704	0.015	0
13	1820	0.016	0
13	1934	0.017	0
13	2054	0.018	0
13	2176	0.019	0
13	2290	0.02	0
13	2410	0.021	0
13	2524	0.022	0
13	2639	0.023	0
13	2762	0.024	0
13	2878	0.025	0
13	2995	0.026	0
13	3112	0.027	0
13	3230	0.028	0
13	3343	0.029	0
13	3462	0.03	0
13	3582	0.031	0
13	3699	0.032	0
13	3817	0.033	0
13	3931	0.034	0
13	4053	0.035	0
13	4171	0.036	0
13	4283	0.037	0
13	4407	0.038	0
13	4523	0.039	0
13	4637	0.04	0
13	4757	0.041	0
13	4874	0.042	0
13	4991	0.043	0
13	5107	0.044	0
13	5226	0.045	0
13	5341	0.046	0
13	5459	0.047	0
13	5580	0.048	0
13	5696	0.049	0
13	5815	0.05	0
13	5932	0.051	0
13	6050	0.052	0
13	6167	0.053	0
13	6285	0.054	0
13	6400	0.055	0
13	6516	0.056	0
13	6640	0.057	0
13	6752	0.058	0
13	6868	0.059	0
13	6992	0.06	0
13	7106	0.061	0
13	7222	0.062	0
13	7340	0.063	0
13	7460	0.064	0
13	7575	0.065	0
13	7691	0.066	0
13	7811	0.067	0
13	7927	0.068	0
13	8044	0.069	0
13	8163	0.07	0
13	8282	0.071	0
13	8398	0.072	0
13	8515	0.073	0
13	8633	0.074	0
13	8748	0.075	0
13	8869	0.076	0
13	8983	0.077	0
13	9100	0.078	0
13	9225	0.079	0
13	9339	0.08	0
13	9452	0.081	0
13	9575	0.082	0
13	9692	0.083	0
13	9806	0.084	0
13	9927	0.085	0
14	64	0.001	0
14	178	0.002	0
14	298	0.003	0
14	411	0.004	0
14	526	0.005	0
14	648	0.006	0
14	767	0.007	0
14	882	0.008	0
14	1002	0.009	0
14	1115	0.01	0
14	1230	0.011	0
14	1353	0.012	0
14	1467	0.013	0
14	1586	0.014	0
14	1705	0.015	0
14	1821	0.016	0
14	1935	0.017	0
14	2055	0.018	0
14	2177	0.019	0
14	2291	0.02	0
14	2411	0.021	0
14	2525	0.022	0
14	2640	0.023	0
14	2763	0.024	0
14	2879	0.025	0
14	2996	0.026	0
14	3113	0.027	0
14	3231	0.028	0
14	3344	0.029	0
14	3463	0.03	0
14	3583	0.031	0
14	3700	0.032	0
14	3818	0.033	0
14	3932	0.034	0
14	4054	0.035	0
14	4172	0.036	0
14	4284	0.037	0
14	4408	0.038	0
14	4524	0.039	0
14	4638	0.04	0
14	4758	0.041	0
14	4875	0.042	0
14	4992	0.043	0
14	5108	0.044	0
14	5227	0.045	0
14	5342	0.046	0
14	5460	0.047	0
14	5581	0.048	0
14	5697	0.049	0
14	5816	0.05	0
14	5933	0.051	0
14	6051	0.052	0
14	6168	0.053	0
14	6286	0.054	0
14	6401	0.055	0
14	6517	0.056	0
14	6641	0.057	0
14	6753	0.058	0
14	6869	0.059	0
14	6993	0.06	0
14	7107	0.061	0
14	7223	0.062	0
14	7341	0.063	0
14	7461	0.064	0
14	7576	0.065	0
14	7692	0.066	0
14	7812	0.067	0
14	7928	0.068	0
14	8045	0.069	0
14	8164	0.07	0
14	8283	0.071	0
14	8399	0.072	0
14	8516	0.073	0
14	8634	0.074	0
14	8749	0.075	0
14	8870	0.076	0
14	8984	0.077	0
14	9101	0.078	0
14	9226	0.079	0
14	9340	0.08	0
14	9453	0.081	0
14	9576	0.082	0
14	9693	0.083	0
14	9807	0.084	0
14	9928	0.085	0
15	65	0.001	0
15	179	0.002	0
15	299	0.003	0
15	412	0.004	0
15	527	0.005	0
15	649	0.006	0
15	768	0.007	0
15	883	0.008	0
15	1003	0.009	0
15	1116	0.01	0
15	1231	0.011	0
15	1354	0.012	0
15	1468	0.013	0
15	1587	0.014	0
15	1706	0.015	0
15	1822	0.016	0
15	1936	0.017	0
15	2056	0.018	0
15	2178	0.019	0
15	2292	0.02	0
15	2412	0.021	0
15	2526	0.022	0
15	2641	0.023	0
15	2764	0.024	0
15	2880	0.025	0
15	2997	0.026	0
15	3114	0.027	0
15	3232	0.028	0
15	3345	0.029	0
15	3464	0.03	0
15	3584	0.031	0
15	3701	0.032	0
15	3819	0.033	0
15	3933	0.034	0
15	4055	0.035	0
15	4173	0.036	0
15	4285	0.037	0
15	4409	0.038	0
15	4525	0.039	0
15	4639	0.04	0
15	4759	0.041	0
15	4876	0.042	0
15	4993	0.043	0
15	5109	0.044	0
15	5228	0.045	0
15	5343	0.046	0
15	5461	0.047	0
15	5582	0.048	0
15	5698	0.049	0
15	5817	0.05	0
15	5934	0.051	0
15	6052	0.052	0
15	6169	0.053	0
15	6287	0.054	0
15	6402	0.055	0
15	6518	0.056	0
15	6642	0.057	0
15	6754	0.058	0
15	6870	0.059	0
15	6994	0.06	0
15	7108	0.061	0
15	7224	0.062	0
15	7342	0.063	0
15	7462	0.064	0
15	7577	0.065	0
15	7693	0.066	0
15	7813	0.067	0
15	7929	0.068	0
15	8046	0.069	0
15	8165	0.07	0
15	8284	0.071	0
15	8400	0.072	0
15	8517	0.073	0
15	8635	0.074	0
15	8750	0.075	0
15	8871	0.076	0
15	8985	0.077	0
15	9102	0.078	0
15	9227	0.079	0
15	9341	0.08	0
15	9454	0.081	0
15	9577	0.082	0
15	9694	0.083	0
15	9808	0.084	0
15	9929	0.085	0
16	66	0.001	0
16	180	0.002	1
16	186	0.002	0
16	300	0.003	0
16	413	0.004	1
16	419	0.004	0
16	528	0.005	1
16	534	0.005	0
16	650	0.006	0
16	769	0.007	1
16	775	0.007	0
16	884	0.008	1
16	890	0.008	0
16	1004	0.009	0
16	1117	0.01	1
16	1123	0.01	0
16	1232	0.011	1
16	1238	0.011	0
16	1355	0.012	0
16	1469	0.013	1
16	1475	0.013	0
16	1588	0.014	1
16	1594	0.014	0
16	1707	0.015	0
16	1823	0.016	1
16	1829	0.016	0
16	1937	0.017	1
16	1943	0.017	0
16	2057	0.018	0
16	2179	0.019	1
16	2185	0.019	0
16	2293	0.02	1
16	2299	0.02	0
16	2413	0.021	0
16	2527	0.022	1
16	2533	0.022	0
16	2642	0.023	1
16	2648	0.023	0
16	2765	0.024	0
16	2881	0.025	1
16	2887	0.025	0
16	2998	0.026	1
16	3004	0.026	0
16	3115	0.027	0
16	3233	0.028	1
16	3239	0.028	0
16	3346	0.029	1
16	3352	0.029	0
16	3465	0.03	0
16	3585	0.031	1
16	3591	0.031	0
16	3702	0.032	1
16	3708	0.032	0
16	3820	0.033	0
16	3934	0.034	1
16	3940	0.034	0
16	4056	0.035	1
16	4062	0.035	0
16	4174	0.036	0
16	4286	0.037	1
16	4292	0.037	0
16	4410	0.038	1
16	4416	0.038	0
16	4526	0.039	0
16	4640	0.04	1
16	4646	0.04	0
16	4760	0.041	1
16	4766	0.041	0
16	4877	0.042	0
16	4994	0.043	1
16	5000	0.043	0
16	5110	0.044	1
16	5116	0.044	0
16	5229	0.045	0
16	5344	0.046	1
16	5350	0.046	0
16	5462	0.047	1
16	5468	0.047	0
16	5583	0.048	0
16	5699	0.049	1
16	5705	0.049	0
16	5818	0.05	1
16	5824	0.05	0
16	5935	0.051	0
16	6053	0.052	1
16	6059	0.052	0
16	6170	0.053	1
16	6176	0.053	0
16	6288	0.054	0
16	6403	0.055	1
16	6409	0.055	0
16	6519	0.056	1
16	6525	0.056	0
16	6643	0.057	0
16	6755	0.058	1
16	6761	0.058	0
16	6871	0.059	1
16	6877	0.059	0
16	6995	0.06	0
16	7109	0.061	1
16	7115	0.061	0
16	7225	0.062	1
16	7231	0.062	0
16	7343	0.063	0
16	7463	0.064	1
16	7469	0.064	0
16	7578	0.065	1
16	7584	0.065	0
16	7694	0.066	0
16	7814	0.067	1
16	7820	0.067	0
16	7930	0.068	1
16	7936	0.068	0
16	8047	0.069	0
16	8166	0.07	1
16	8172	0.07	0
16	8285	0.071	1
16	8291	0.071	0
16	8401	0.072	0
16	8518	0.073	1
16	8524	0.073	0
16	8636	0.074	1
16	8642	0.074	0
16	8751	0.075	0
16	8872	0.076	1
16	8878	0.076	0
16	8986	0.077	1
16	8992	0.077	0
16	9103	0.078	0
16	9228	0.079	1
16	9234	0.079	0
16	9342	0.08	1
16	9348	0.08	0
16	9455	0.081	0
16	9578	0.082	1
16	9584	0.082	0
16	9695	0.083	1
16	9701	0.083	0
16	9809	0.084	0
16	9930	0.085	1
16	9936	0.085	0
17	67	0.001	0
17	181	0.002	1
17	187	0.002	0
17	301	0.003	0
17	414	0.004	1
17	420	0.004	0
17	529	0.005	0
17	651	0.006	1
17	656	0.006	0
17	770	0.007	1
17	776	0.007	0
17	885	0.008	0
17	1005	0.009	1
17	1010	0.009	0
17	1118	0.01	0
17	1233	0.011	1
17	1239	0.011	0
17	1356	0.012	0
17	1470	0.013	1
17	1476	0.013	0
17	1589	0.014	1
17	1595	0.014	0
17	1708	0.015	0
17	1824	0.016	1
17	1830	0.016	0
17	1938	0.017	0
17	2058	0.018	1
17	2063	0.018	0
17	2180	0.019	1
17	2186	0.019	0
17	2294	0.02	0
17	2414	0.021	1
17	2419	0.021	0
17	2528	0.022	0
17	2643	0.023	1
17	2649	0.023	0
17	2766	0.024	0
17	2882	0.025	1
17	2888	0.025	0
17	2999	0.026	1
17	3005	0.026	0
17	3116	0.027	0
17	3234	0.028	1
17	3240	0.028	0
17	3347	0.029	0
17	3466	0.03	1
17	3471	0.03	0
17	3586	0.031	0
17	3703	0.032	1
17	3709	0.032	0
17	3821	0.033	1
17	3826	0.033	0
17	3935	0.034	0
17	4057	0.035	1
17	4063	0.035	0
17	4175	0.036	0
17	4287	0.037	1
17	4293	0.037	0
17	4411	0.038	1
17	4417	0.038	0
17	4527	0.039	0
17	4641	0.04	1
17	4647	0.04	0
17	4761	0.041	0
17	4878	0.042	1
17	4883	0.042	0
17	4995	0.043	0
17	5111	0.044	1
17	5117	0.044	0
17	5230	0.045	1
17	5235	0.045	0
17	5345	0.046	0
17	5463	0.047	1
17	5469	0.047	0
17	5584	0.048	0
17	5700	0.049	1
17	5706	0.049	0
17	5819	0.05	0
17	5936	0.051	1
17	5941	0.051	0
17	6054	0.052	1
17	6060	0.052	0
17	6171	0.053	0
17	6289	0.054	1
17	6294	0.054	0
17	6404	0.055	0
17	6520	0.056	1
17	6526	0.056	0
17	6644	0.057	1
17	6649	0.057	0
17	6756	0.058	0
17	6872	0.059	1
17	6878	0.059	0
17	6996	0.06	0
17	7110	0.061	1
17	7116	0.061	0
17	7226	0.062	0
17	7344	0.063	1
17	7349	0.063	0
17	7464	0.064	1
17	7470	0.064	0
17	7579	0.065	0
17	7695	0.066	1
17	7700	0.066	0
17	7815	0.067	0
17	7931	0.068	1
17	7937	0.068	0
17	8048	0.069	0
17	8167	0.07	1
17	8173	0.07	0
17	8286	0.071	1
17	8292	0.071	0
17	8402	0.072	0
17	8519	0.073	1
17	8525	0.073	0
17	8637	0.074	0
17	8752	0.075	1
17	8757	0.075	0
17	8873	0.076	1
17	8879	0.076	0
17	8987	0.077	0
17	9104	0.078	1
17	9109	0.078	0
17	9229	0.079	0
17	9343	0.08	1
17	9349	0.08	0
17	9456	0.081	0
17	9579	0.082	1
17	9585	0.082	0
17	9696	0.083	1
17	9702	0.083	0
17	9810	0.084	0
17	9931	0.085	1
17	9937	0.085	0
18	68	0.001	0
18	182	0.002	1
18	188	0.002	0
18	302	0.003	1
18	306	0.003	0
18	415	0.004	0
18	530	0.005	1
18	535	0.005	0
18	652	0.006	1
18	657	0.006	0
18	771	0.007	0
18	886	0.008	1
18	891	0.008	0
18	1006	0.009	1
18	1011	0.009	0
18	1119	0.01	0
18	1234	0.011	1
18	1240	0.011	0
18	1357	0.012	1
18	1361	0.012	0
18	1471	0.013	0
18	1590	0.014	1
18	1596	0.014	0
18	1709	0.015	1
18	1713	0.015	0
18	1825	0.016	0
18	1939	0.017	1
18	1944	0.017	0
18	2059	0.018	1
18	2064	0.018	0
18	2181	0.019	0
18	2295	0.02	1
18	2300	0.02	0
18	2415	0.021	1
18	2420	0.021	0
18	2529	0.022	0
18	2644	0.023	1
18	2650	0.023	0
18	2767	0.024	1
18	2771	0.024	0
18	2883	0.025	0
18	3000	0.026	1
18	3006	0.026	0
18	3117	0.027	1
18	3121	0.027	0
18	3235	0.028	0
18	3348	0.029	1
18	3353	0.029	0
18	3467	0.03	1
18	3472	0.03	0
18	3587	0.031	0
18	3704	0.032	1
18	3710	0.032	0
18	3822	0.033	1
18	3827	0.033	0
18	3936	0.034	0
18	4058	0.035	1
18	4064	0.035	0
18	4176	0.036	1
18	4180	0.036	0
18	4288	0.037	0
18	4412	0.038	1
18	4418	0.038	0
18	4528	0.039	1
18	4532	0.039	0
18	4642	0.04	0
18	4762	0.041	1
18	4767	0.041	0
18	4879	0.042	1
18	4884	0.042	0
18	4996	0.043	0
18	5112	0.044	1
18	5118	0.044	0
18	5231	0.045	1
18	5236	0.045	0
18	5346	0.046	0
18	5464	0.047	1
18	5470	0.047	0
18	5585	0.048	1
18	5589	0.048	0
18	5701	0.049	1
18	5707	0.049	0
18	5820	0.05	0
18	5937	0.051	1
18	5942	0.051	0
18	6055	0.052	1
18	6061	0.052	0
18	6172	0.053	0
18	6290	0.054	1
18	6295	0.054	0
18	6405	0.055	1
18	6410	0.055	0
18	6521	0.056	0
18	6645	0.057	1
18	6650	0.057	0
18	6757	0.058	1
18	6762	0.058	0
18	6873	0.059	0
18	6997	0.06	1
18	7001	0.06	0
18	7111	0.061	1
18	7117	0.061	0
18	7227	0.062	0
18	7345	0.063	1
18	7350	0.063	0
18	7465	0.064	1
18	7471	0.064	0
18	7580	0.065	0
18	7696	0.066	1
18	7701	0.066	0
18	7816	0.067	1
18	7821	0.067	0
18	7932	0.068	0
18	8049	0.069	1
18	8053	0.069	0
18	8168	0.07	1
18	8174	0.07	0
18	8287	0.071	0
18	8403	0.072	1
18	8407	0.072	0
18	8520	0.073	1
18	8526	0.073	0
18	8638	0.074	0
18	8753	0.075	1
18	8758	0.075	0
18	8874	0.076	1
18	8880	0.076	0
18	8988	0.077	0
18	9105	0.078	1
18	9110	0.078	0
18	9230	0.079	1
18	9235	0.079	0
18	9344	0.08	0
18	9457	0.081	1
18	9461	0.081	0
18	9580	0.082	1
18	9586	0.082	0
18	9697	0.083	0
18	9811	0.084	1
18	9815	0.084	0
18	9932	0.085	1
18	9938	0.085	0
19	69	0.001	1
19	72	0.001	0
19	183	0.002	2
19	189	0.002	1
19	192	0.002	0
19	303	0.003	2
19	307	0.003	1
19	310	0.003	0
19	416	0.004	1
19	421	0.004	0
19	531	0.005	2
19	536	0.005	1
19	539	0.005	0
19	653	0.006	2
19	658	0.006	1
19	661	0.006	0
19	772	0.007	2
19	777	0.007	1
19	780	0.007	0
19	887	0.008	1
19	892	0.008	0
19	1007	0.009	2
19	1012	0.009	1
19	1015	0.009	0
19	1120	0.01	2
19	1124	0.01	1
19	1127	0.01	0
19	1235	0.011	1
19	1241	0.011	0
19	1358	0.012	2
19	1362	0.012	1
19	1365	0.012	0
19	1472	0.013	2
19	1477	0.013	1
19	1480	0.013	0
19	1591	0.014	2
19	1597	0.014	1
19	1600	0.014	0
19	1710	0.015	1
19	1714	0.015	0
19	1826	0.016	2
19	1831	0.016	1
19	1834	0.016	0
19	1940	0.017	2
19	1945	0.017	1
19	1948	0.017	0
19	2060	0.018	1
19	2065	0.018	0
19	2182	0.019	2
19	2187	0.019	1
19	2190	0.019	0
19	2296	0.02	2
19	2301	0.02	1
19	2304	0.02	0
19	2416	0.021	2
19	2421	0.021	1
19	2424	0.021	0
19	2530	0.022	1
19	2534	0.022	0
19	2645	0.023	2
19	2651	0.023	1
19	2654	0.023	0
19	2768	0.024	2
19	2772	0.024	1
19	2775	0.024	0
19	2884	0.025	2
19	2889	0.025	1
19	2892	0.025	0
19	3001	0.026	1
19	3007	0.026	0
19	3118	0.027	2
19	3122	0.027	1
19	3125	0.027	0
19	3236	0.028	2
19	3241	0.028	1
19	3244	0.028	0
19	3349	0.029	1
19	3354	0.029	0
19	3468	0.03	2
19	3473	0.03	1
19	3476	0.03	0
19	3588	0.031	2
19	3592	0.031	1
19	3595	0.031	0
19	3705	0.032	2
19	3711	0.032	1
19	3714	0.032	0
19	3823	0.033	1
19	3828	0.033	0
19	3937	0.034	2
19	3941	0.034	1
19	3944	0.034	0
19	4059	0.035	2
19	4065	0.035	1
19	4068	0.035	0
19	4177	0.036	1
19	4181	0.036	0
19	4289	0.037	2
19	4294	0.037	1
19	4297	0.037	0
19	4413	0.038	2
19	4419	0.038	1
19	4422	0.038	0
19	4529	0.039	2
19	4533	0.039	1
19	4536	0.039	0
19	4643	0.04	1
19	4648	0.04	0
19	4763	0.041	2
19	4768	0.041	1
19	4771	0.041	0
19	4880	0.042	2
19	4885	0.042	1
19	4888	0.042	0
19	4997	0.043	2
19	5001	0.043	1
19	5004	0.043	0
19	5113	0.044	1
19	5119	0.044	0
19	5232	0.045	2
19	5237	0.045	1
19	5240	0.045	0
19	5347	0.046	2
19	5351	0.046	1
19	5354	0.046	0
19	5465	0.047	1
19	5471	0.047	0
19	5586	0.048	2
19	5590	0.048	1
19	5593	0.048	0
19	5702	0.049	2
19	5708	0.049	1
19	5711	0.049	0
19	5821	0.05	2
19	5825	0.05	1
19	5828	0.05	0
19	5938	0.051	1
19	5943	0.051	0
19	6056	0.052	2
19	6062	0.052	1
19	6065	0.052	0
19	6173	0.053	2
19	6177	0.053	1
19	6180	0.053	0
19	6291	0.054	1
19	6296	0.054	0
19	6406	0.055	2
19	6411	0.055	1
19	6414	0.055	0
19	6522	0.056	2
19	6527	0.056	1
19	6530	0.056	0
19	6646	0.057	2
19	6651	0.057	1
19	6654	0.057	0
19	6758	0.058	1
19	6763	0.058	0
19	6874	0.059	2
19	6879	0.059	1
19	6882	0.059	0
19	6998	0.06	2
19	7002	0.06	1
19	7005	0.06	0
19	7112	0.061	2
19	7118	0.061	1
19	7121	0.061	0
19	7228	0.062	1
19	7232	0.062	0
19	7346	0.063	2
19	7351	0.063	1
19	7354	0.063	0
19	7466	0.064	2
19	7472	0.064	1
19	7475	0.064	0
19	7581	0.065	1
19	7585	0.065	0
19	7697	0.066	2
19	7702	0.066	1
19	7705	0.066	0
19	7817	0.067	2
19	7822	0.067	1
19	7825	0.067	0
19	7933	0.068	2
19	7938	0.068	1
19	7941	0.068	0
19	8050	0.069	1
19	8054	0.069	0
19	8169	0.07	2
19	8175	0.07	1
19	8178	0.07	0
19	8288	0.071	2
19	8293	0.071	1
19	8296	0.071	0
19	8404	0.072	1
19	8408	0.072	0
19	8521	0.073	2
19	8527	0.073	1
19	8530	0.073	0
19	8639	0.074	2
19	8643	0.074	1
19	8646	0.074	0
19	8754	0.075	2
19	8759	0.075	1
19	8762	0.075	0
19	8875	0.076	1
19	8881	0.076	0
19	8989	0.077	2
19	8993	0.077	1
19	8996	0.077	0
19	9106	0.078	2
19	9111	0.078	1
19	9114	0.078	0
19	9231	0.079	2
19	9236	0.079	1
19	9239	0.079	0
19	9345	0.08	1
19	9350	0.08	0
19	9458	0.081	2
19	9462	0.081	1
19	9465	0.081	0
19	9581	0.082	2
19	9587	0.082	1
19	9590	0.082	0
19	9698	0.083	1
19	9703	0.083	0
19	9812	0.084	2
19	9816	0.084	1
19	9819	0.084	0
19	9933	0.085	2
19	9939	0.085	1
19	9942	0.085	0
20	70	0.001	1
20	73	0.001	0
20	184	0.002	2
20	190	0.002	1
20	193	0.002	0
20	304	0.003	2
20	308	0.003	1
20	311	0.003	0
20	417	0.004	1
20	422	0.004	0
20	532	0.005	2
20	537	0.005	1
20	540	0.005	0
20	654	0.006	2
20	659	0.006	1
20	662	0.006	0
20	773	0.007	1
20	778	0.007	0
20	888	0.008	2
20	893	0.008	1
20	895	0.008	0
20	1008	0.009	2
20	1013	0.009	1
20	1016	0.009	0
20	1121	0.01	1
20	1125	0.01	0
20	1236	0.011	2
20	1242	0.011	1
20	1244	0.011	0
20	1359	0.012	2
20	1363	0.012	1
20	1366	0.012	0
20	1473	0.013	1
20	1478	0.013	0
20	1592	0.014	2
20	1598	0.014	1
20	1601	0.014	0
20	1711	0.015	2
20	1715	0.015	1
20	1717	0.015	0
20	1827	0.016	1
20	1832	0.016	0
20	1941	0.017	2
20	1946	0.017	1
20	1949	0.017	0
20	2061	0.018	2
20	2066	0.018	1
20	2068	0.018	0
20	2183	0.019	1
20	2188	0.019	0
20	2297	0.02	2
20	2302	0.02	1
20	2305	0.02	0
20	2417	0.021	2
20	2422	0.021	1
20	2425	0.021	0
20	2531	0.022	1
20	2535	0.022	0
20	2646	0.023	2
20	2652	0.023	1
20	2655	0.023	0
20	2769	0.024	2
20	2773	0.024	1
20	2776	0.024	0
20	2885	0.025	1
20	2890	0.025	0
20	3002	0.026	2
20	3008	0.026	1
20	3010	0.026	0
20	3119	0.027	2
20	3123	0.027	1
20	3126	0.027	0
20	3237	0.028	1
20	3242	0.028	0
20	3350	0.029	2
20	3355	0.029	1
20	3357	0.029	0
20	3469	0.03	2
20	3474	0.03	1
20	3477	0.03	0
20	3589	0.031	1
20	3593	0.031	0
20	3706	0.032	2
20	3712	0.032	1
20	3715	0.032	0
20	3824	0.033	2
20	3829	0.033	1
20	3831	0.033	0
20	3938	0.034	1
20	3942	0.034	0
20	4060	0.035	2
20	4066	0.035	1
20	4069	0.035	0
20	4178	0.036	2
20	4182	0.036	1
20	4184	0.036	0
20	4290	0.037	1
20	4295	0.037	0
20	4414	0.038	2
20	4420	0.038	1
20	4423	0.038	0
20	4530	0.039	2
20	4534	0.039	1
20	4537	0.039	0
20	4644	0.04	1
20	4649	0.04	0
20	4764	0.041	2
20	4769	0.041	1
20	4772	0.041	0
20	4881	0.042	2
20	4886	0.042	1
20	4889	0.042	0
20	4998	0.043	1
20	5002	0.043	0
20	5114	0.044	2
20	5120	0.044	1
20	5122	0.044	0
20	5233	0.045	2
20	5238	0.045	1
20	5241	0.045	0
20	5348	0.046	1
20	5352	0.046	0
20	5466	0.047	2
20	5472	0.047	1
20	5474	0.047	0
20	5587	0.048	2
20	5591	0.048	1
20	5594	0.048	0
20	5703	0.049	1
20	5709	0.049	0
20	5822	0.05	2
20	5826	0.05	1
20	5829	0.05	0
20	5939	0.051	2
20	5944	0.051	1
20	5946	0.051	0
20	6057	0.052	1
20	6063	0.052	0
20	6174	0.053	2
20	6178	0.053	1
20	6181	0.053	0
20	6292	0.054	2
20	6297	0.054	1
20	6299	0.054	0
20	6407	0.055	1
20	6412	0.055	0
20	6523	0.056	2
20	6528	0.056	1
20	6531	0.056	0
20	6647	0.057	2
20	6652	0.057	1
20	6655	0.057	0
20	6759	0.058	1
20	6764	0.058	0
20	6875	0.059	2
20	6880	0.059	1
20	6883	0.059	0
20	6999	0.06	2
20	7003	0.06	1
20	7006	0.06	0
20	7113	0.061	1
20	7119	0.061	0
20	7229	0.062	2
20	7233	0.062	1
20	7235	0.062	0
20	7347	0.063	2
20	7352	0.063	1
20	7355	0.063	0
20	7467	0.064	1
20	7473	0.064	0
20	7582	0.065	2
20	7586	0.065	1
20	7588	0.065	0
20	7698	0.066	2
20	7703	0.066	1
20	7706	0.066	0
20	7818	0.067	1
20	7823	0.067	0
20	7934	0.068	2
20	7939	0.068	1
20	7942	0.068	0
20	8051	0.069	2
20	8055	0.069	1
20	8057	0.069	0
20	8170	0.07	1
20	8176	0.07	0
20	8289	0.071	2
20	8294	0.071	1
20	8297	0.071	0
20	8405	0.072	2
20	8409	0.072	1
20	8411	0.072	0
20	8522	0.073	1
20	8528	0.073	0
20	8640	0.074	2
20	8644	0.074	1
20	8647	0.074	0
20	8755	0.075	2
20	8760	0.075	1
20	8763	0.075	0
20	8876	0.076	1
20	8882	0.076	0
20	8990	0.077	2
20	8994	0.077	1
20	8997	0.077	0
20	9107	0.078	2
20	9112	0.078	1
20	9115	0.078	0
20	9232	0.079	2
20	9237	0.079	1
20	9240	0.079	0
20	9346	0.08	1
20	9351	0.08	0
20	9459	0.081	2
20	9463	0.081	1
20	9466	0.081	0
20	9582	0.082	2
20	9588	0.082	1
20	9591	0.082	0
20	9699	0.083	1
20	9704	0.083	0
20	9813	0.084	2
20	9817	0.084	1
20	9820	0.084	0
20	9934	0.085	2
20	9940	0.085	1
20	9943	0.085	0
21	71	0.001	1
21	74	0.001	0
21	185	0.002	2
21	191	0.002	1
21	194	0.002	0
21	305	0.003	2
21	309	0.003	1
21	312	0.003	0
21	418	0.004	1
21	423	0.004	0
21	533	0.005	2
21	538	0.005	1
21	541	0.005	0
21	655	0.006	2
21	660	0.006	1
21	663	0.006	0
21	774	0.007	1
21	779	0.007	0
21	889	0.008	2
21	894	0.008	1
21	896	0.008	0
21	1009	0.009	2
21	1014	0.009	1
21	1017	0.009	0
21	1122	0.01	1
21	1126	0.01	0
21	1237	0.011	2
21	1243	0.011	1
21	1245	0.011	0
21	1360	0.012	2
21	1364	0.012	1
21	1367	0.012	0
21	1474	0.013	1
21	1479	0.013	0
21	1593	0.014	2
21	1599	0.014	1
21	1602	0.014	0
21	1712	0.015	2
21	1716	0.015	1
21	1718	0.015	0
21	1828	0.016	1
21	1833	0.016	0
21	1942	0.017	2
21	1947	0.017	1
21	1950	0.017	0
21	2062	0.018	2
21	2067	0.018	1
21	2069	0.018	0
21	2184	0.019	2
21	2189	0.019	1
21	2191	0.019	0
21	2298	0.02	1
21	2303	0.02	0
21	2418	0.021	2
21	2423	0.021	1
21	2426	0.021	0
21	2532	0.022	2
21	2536	0.022	1
21	2537	0.022	0
21	2647	0.023	1
21	2653	0.023	0
21	2770	0.024	2
21	2774	0.024	1
21	2777	0.024	0
21	2886	0.025	2
21	2891	0.025	1
21	2893	0.025	0
21	3003	0.026	1
21	3009	0.026	0
21	3120	0.027	2
21	3124	0.027	1
21	3127	0.027	0
21	3238	0.028	2
21	3243	0.028	1
21	3245	0.028	0
21	3351	0.029	1
21	3356	0.029	0
21	3470	0.03	2
21	3475	0.03	1
21	3478	0.03	0
21	3590	0.031	2
21	3594	0.031	1
21	3596	0.031	0
21	3707	0.032	1
21	3713	0.032	0
21	3825	0.033	2
21	3830	0.033	1
21	3832	0.033	0
21	3939	0.034	2
21	3943	0.034	1
21	3945	0.034	0
21	4061	0.035	2
21	4067	0.035	1
21	4070	0.035	0
21	4179	0.036	1
21	4183	0.036	0
21	4291	0.037	2
21	4296	0.037	1
21	4298	0.037	0
21	4415	0.038	2
21	4421	0.038	1
21	4424	0.038	0
21	4531	0.039	1
21	4535	0.039	0
21	4645	0.04	2
21	4650	0.04	1
21	4651	0.04	0
21	4765	0.041	2
21	4770	0.041	1
21	4773	0.041	0
21	4882	0.042	1
21	4887	0.042	0
21	4999	0.043	2
21	5003	0.043	1
21	5005	0.043	0
21	5115	0.044	2
21	5121	0.044	1
21	5123	0.044	0
21	5234	0.045	1
21	5239	0.045	0
21	5349	0.046	2
21	5353	0.046	1
21	5355	0.046	0
21	5467	0.047	2
21	5473	0.047	1
21	5475	0.047	0
21	5588	0.048	1
21	5592	0.048	0
21	5704	0.049	2
21	5710	0.049	1
21	5712	0.049	0
21	5823	0.05	2
21	5827	0.05	1
21	5830	0.05	0
21	5940	0.051	2
21	5945	0.051	1
21	5947	0.051	0
21	6058	0.052	1
21	6064	0.052	0
21	6175	0.053	2
21	6179	0.053	1
21	6182	0.053	0
21	6293	0.054	2
21	6298	0.054	1
21	6300	0.054	0
21	6408	0.055	1
21	6413	0.055	0
21	6524	0.056	2
21	6529	0.056	1
21	6532	0.056	0
21	6648	0.057	2
21	6653	0.057	1
21	6656	0.057	0
21	6760	0.058	1
21	6765	0.058	0
21	6876	0.059	2
21	6881	0.059	1
21	6884	0.059	0
21	7000	0.06	2
21	7004	0.06	1
21	7007	0.06	0
21	7114	0.061	1
21	7120	0.061	0
21	7230	0.062	2
21	7234	0.062	1
21	7236	0.062	0
21	7348	0.063	2
21	7353	0.063	1
21	7356	0.063	0
21	7468	0.064	1
21	7474	0.064	0
21	7583	0.065	2
21	7587	0.065	1
21	7589	0.065	0
21	7699	0.066	2
21	7704	0.066	1
21	7707	0.066	0
21	7819	0.067	1
21	7824	0.067	0
21	7935	0.068	2
21	7940	0.068	1
21	7943	0.068	0
21	8052	0.069	2
21	8056	0.069	1
21	8058	0.069	0
21	8171	0.07	2
21	8177	0.07	1
21	8179	0.07	0
21	8290	0.071	1
21	8295	0.071	0
21	8406	0.072	2
21	8410	0.072	1
21	8412	0.072	0
21	8523	0.073	2
21	8529	0.073	1
21	8531	0.073	0
21	8641	0.074	1
21	8645	0.074	0
21	8756	0.075	2
21	8761	0.075	1
21	8764	0.075	0
21	8877	0.076	2
21	8883	0.076	1
21	8884	0.076	0
21	8991	0.077	1
21	8995	0.077	0
21	9108	0.078	2
21	9113	0.078	1
21	9116	0.078	0
21	9233	0.079	2
21	9238	0.079	1
21	9241	0.079	0
21	9347	0.08	1
21	9352	0.08	0
21	9460	0.081	2
21	9464	0.081	1
21	9467	0.081	0
21	9583	0.082	2
21	9589	0.082	1
21	9592	0.082	0
21	9700	0.083	1
21	9705	0.083	0
21	9814	0.084	2
21	9818	0.084	1
21	9821	0.084	0
21	9935	0.085	2
21	9941	0.085	1
21	9944	0.085	0
22	75	0.001	0.000613063607
22	76	0.001	0.000226127214
22	77	0.001	0.000613262727
22	78	0.001	0.000226525454
22	79	0.001	0.00062792821
22	80	0.001	0.00025585642
22	81	0.001	0.000620545651
22	82	0.001	0.000241091302
22	83	0.001	0.000624728975
22	84	0.001	0.00024945795
22	85	0.001	0.00061233402
22	86	0.001	0.00022466804
22	87	0.001	0.000626014507
22	88	0.001	0.000252029014
22	89	0.001	0.000632574288
22	90	0.001	0.0006256049
22	91	0.001	0.000627775302
22	92	0.001	0.000265148576
22	93	0.001	0.0002512098
22	94	0.001	0.000255550604
22	195	0.002	0.000839190821
22	196	0.002	0.000452254428
22	197	0.002	6.5318035e-005
22	198	0.002	0.000839788181
22	199	0.002	0.000453050908
22	200	0.002	6.6313635e-005
22	201	0.002	0.00088378463
22	202	0.002	0.00051171284
22	203	0.002	0.00013964105
22	204	0.002	0.000861636953
22	205	0.002	0.000482182604
22	206	0.002	0.000102728255
22	207	0.002	0.000874186925
22	208	0.002	0.0004989159
22	209	0.002	0.00083700206
22	210	0.002	0.00044933608
22	211	0.002	0.000878043521
22	212	0.002	0.000504058028
22	213	0.002	0.000897722864
22	214	0.002	0.0008768147
22	215	0.002	0.000883325906
22	216	0.002	0.000123644875
22	217	0.002	6.16701e-005
22	218	0.002	0.000130072535
22	219	0.002	0.000530297152
22	220	0.002	0.0005024196
22	221	0.002	0.000511101208
22	222	0.002	0.00016287144
22	223	0.002	0.0001280245
22	224	0.002	0.00013887651
22	313	0.003	0.000678381642
22	314	0.003	0.000291445249
22	315	0.003	0.000679576362
22	316	0.003	0.000292839089
22	317	0.003	0.00076756926
22	318	0.003	0.00039549747
22	319	0.003	2.342568e-005
22	320	0.003	0.000723273906
22	321	0.003	0.000343819557
22	322	0.003	0.00074837385
22	323	0.003	0.000373102825
22	324	0.003	0.00067400412
22	325	0.003	0.00028633814
22	326	0.003	0.000756087042
22	327	0.003	0.000382101549
22	328	0.003	0.000795445728
22	329	0.003	0.0007536294
22	330	0.003	0.000766651812
22	331	0.003	8.116056e-006
22	332	0.003	0.000428020016
22	333	0.003	0.0003792343
22	334	0.003	0.000394427114
22	335	0.003	6.0594304e-005
22	336	0.003	4.8392e-006
22	337	0.003	2.2202416e-005
22	424	0.004	0.000904508856
22	425	0.004	0.000517572463
22	426	0.004	0.00013063607
22	427	0.004	0.000906101816
22	428	0.004	0.000519364543
22	429	0.004	0.00013262727
22	430	0.004	0.00065135389
22	431	0.004	0.0002792821
22	432	0.004	0.000964365208
22	433	0.004	0.000584910859
22	434	0.004	0.00020545651
22	435	0.004	0.0009978318
22	436	0.004	0.000622560775
22	437	0.004	0.00089867216
22	438	0.004	0.00051100618
22	439	0.004	0.000634130563
22	440	0.004	0.00026014507
22	441	0.004	0.000693168592
22	442	0.004	0.0006304441
22	443	0.004	0.000649977718
22	444	0.004	0.00024728975
22	445	0.004	0.0001233402
22	446	0.004	0.00032574288
22	447	0.004	0.000256049
22	448	0.004	0.00027775302
22	542	0.005	0.000743699677
22	543	0.005	0.000356763284
22	544	0.005	0.000745889997
22	545	0.005	0.000359152724
22	546	0.005	0.00090721031
22	547	0.005	0.00053513852
22	548	0.005	0.00016306673
22	549	0.005	0.000826002161
22	550	0.005	0.000446547812
22	551	0.005	6.7093463e-005
22	552	0.005	0.000872018725
22	553	0.005	0.0004967477
22	554	0.005	0.00073567422
22	555	0.005	0.00034800824
22	556	0.005	0.000886159577
22	557	0.005	0.000512174084
22	558	0.005	0.000958317168
22	559	0.005	0.0008816539
22	560	0.005	0.000905528322
22	561	0.005	0.000121476675
22	562	0.005	0.000138188591
22	563	0.005	0.000590891456
22	564	0.005	0.0005072588
22	565	0.005	0.000533303624
22	566	0.005	0.000223465744
22	567	0.005	0.0001328637
22	568	0.005	0.000161078926
22	664	0.006	0.000969826891
22	665	0.006	0.000582890498
22	666	0.006	0.000195954105
22	667	0.006	0.000972415451
22	668	0.006	0.000585678178
22	669	0.006	0.000198940905
22	670	0.006	0.00079099494
22	671	0.006	0.00041892315
22	672	0.006	4.685136e-005
22	673	0.006	0.000687639114
22	674	0.006	0.000308184765
22	675	0.006	0.00074620565
22	676	0.006	0.000370934625
22	677	0.006	0.00096034226
22	678	0.006	0.00057267628
22	679	0.006	0.000764203098
22	680	0.006	0.000390217605
22	681	0.006	0.000856040032
22	682	0.006	0.0007584686
22	683	0.006	0.000788854228
22	684	0.006	0.0001850103
22	685	0.006	1.6232112e-005
22	686	0.006	0.00048861432
22	687	0.006	0.0003840735
22	688	0.006	0.00041662953
22	689	0.006	0.000121188608
22	690	0.006	9.6784e-006
22	691	0.006	4.4404832e-005
22	781	0.007	0.000809017712
22	782	0.007	0.000422081319
22	783	0.007	3.5144926e-005
22	784	0.007	0.000812203632
22	785	0.007	0.000425466359
22	786	0.007	3.8729086e-005
22	787	0.007	0.00067477957
22	788	0.007	0.00030270778
22	789	0.007	0.000928730416
22	790	0.007	0.000549276067
22	791	0.007	0.000169821718
22	792	0.007	0.0009956636
22	793	0.007	0.000620392575
22	794	0.007	0.00079734432
22	795	0.007	0.00040967834
22	796	0.007	0.000642246619
22	797	0.007	0.000268261126
22	798	0.007	0.000753762896
22	799	0.007	0.0006352833
22	800	0.007	0.000672180134
22	801	0.007	0.00024512155
22	802	0.007	2.201236e-005
22	803	0.007	0.000386337184
22	804	0.007	0.0002608882
22	805	0.007	0.000299955436
22	806	0.007	1.8911472e-005
22	897	0.008	0.000648208533
22	898	0.008	0.00026127214
22	899	0.008	0.000651991813
22	900	0.008	0.00026525454
22	901	0.008	0.00093063599
22	902	0.008	0.0005585642
22	903	0.008	0.00018649241
22	904	0.008	0.000790367369
22	905	0.008	0.00041091302
22	906	0.008	3.1458671e-005
22	907	0.008	0.000869850525
22	908	0.008	0.0004945795
22	909	0.008	0.00063434638
22	910	0.008	0.0002466804
22	911	0.008	0.000894275633
22	912	0.008	0.00052029014
22	913	0.008	0.00065148576
22	914	0.008	0.0008864931
22	915	0.008	0.000927730738
22	916	0.008	0.000119308475
22	917	0.008	0.000146304647
22	918	0.008	0.000284060048
22	919	0.008	0.000512098
22	920	0.008	0.00055550604
22	921	0.008	0.0001377029
22	922	0.008	0.000183281342
22	1018	0.009	0.000874335747
22	1019	0.009	0.000487399354
22	1020	0.009	0.000100462961
22	1021	0.009	0.000878517267
22	1022	0.009	0.000491779994
22	1023	0.009	0.000105042721
22	1024	0.009	0.00081442062
22	1025	0.009	0.00044234883
22	1026	0.009	7.027704e-005
22	1027	0.009	0.000652004322
22	1028	0.009	0.000272549973
22	1029	0.009	0.00074403745
22	1030	0.009	0.000368766425
22	1031	0.009	0.00085901442
22	1032	0.009	0.00047134844
22	1033	0.009	0.000772319154
22	1034	0.009	0.000398333661
22	1035	0.009	0.000916634336
22	1036	0.009	0.0007633078
22	1037	0.009	0.000811056644
22	1038	0.009	8.368246e-005
22	1039	0.009	2.4348168e-005
22	1040	0.009	0.000549208624
22	1041	0.009	0.0003889127
22	1042	0.009	0.000438831946
22	1043	0.009	0.000181782912
22	1044	0.009	1.45176e-005
22	1045	0.009	6.6607248e-005
22	1128	0.01	0.000713526568
22	1129	0.01	0.000326590175
22	1130	0.01	0.000718305448
22	1131	0.01	0.000331568175
22	1132	0.01	0.00069820525
22	1133	0.01	0.00032613346
22	1134	0.01	0.000893095624
22	1135	0.01	0.000513641275
22	1136	0.01	0.000134186926
22	1137	0.01	0.0009934954
22	1138	0.01	0.000618224375
22	1139	0.01	0.00069601648
22	1140	0.01	0.0003083505
22	1141	0.01	0.000650362675
22	1142	0.01	0.000276377182
22	1143	0.01	0.0008143572
22	1144	0.01	0.0006401225
22	1145	0.01	0.00069438255
22	1146	0.01	0.00024295335
22	1147	0.01	0.000446931488
22	1148	0.01	0.0002657274
22	1149	0.01	0.000322157852
22	1150	0.01	7.9505776e-005
22	1246	0.011	0.000939653782
22	1247	0.011	0.000552717389
22	1248	0.011	0.000165780996
22	1249	0.011	0.000944830902
22	1250	0.011	0.000558093629
22	1251	0.011	0.000171356356
22	1252	0.011	0.00095406167
22	1253	0.011	0.00058198988
22	1254	0.011	0.00020991809
22	1255	0.011	0.000754732577
22	1256	0.011	0.000375278228
22	1257	0.011	0.000867682325
22	1258	0.011	0.0004924113
22	1259	0.011	0.00092068452
22	1260	0.011	0.00053301854
22	1261	0.011	0.000902391689
22	1262	0.011	0.000528406196
22	1263	0.011	0.000712080064
22	1264	0.011	0.0008913323
22	1265	0.011	0.000949933154
22	1266	0.011	0.000117140275
22	1267	0.011	0.00014535256
22	1268	0.011	0.000154420703
22	1269	0.011	0.000344654352
22	1270	0.011	0.0005169372
22	1271	0.011	0.000577708456
22	1272	0.011	0.0001425421
22	1273	0.011	0.000205483758
22	1368	0.012	0.000778844603
22	1369	0.012	0.00039190821
22	1370	0.012	4.971817e-006
22	1371	0.012	0.000784619083
22	1372	0.012	0.00039788181
22	1373	0.012	1.1144537e-005
22	1374	0.012	0.0008378463
22	1375	0.012	0.00046577451
22	1376	0.012	9.370272e-005
22	1377	0.012	0.000995823879
22	1378	0.012	0.00061636953
22	1379	0.012	0.000236915181
22	1380	0.012	0.00074186925
22	1381	0.012	0.000366598225
22	1382	0.012	0.00075768658
22	1383	0.012	0.0003700206
22	1384	0.012	0.00078043521
22	1385	0.012	0.000406449717
22	1386	0.012	0.00097722864
22	1387	0.012	0.000768147
22	1388	0.012	0.00083325906
22	1389	0.012	3.2464224e-005
22	1390	0.012	0.000609802928
22	1391	0.012	0.0003937519
22	1392	0.012	0.000461034362
22	1393	0.012	0.000242377216
22	1394	0.012	1.93568e-005
22	1395	0.012	8.8809664e-005
22	1481	0.013	0.000618035424
22	1482	0.013	0.000231099031
22	1483	0.013	0.000624407264
22	1484	0.013	0.000237669991
22	1485	0.013	0.00072163093
22	1486	0.013	0.00034955914
22	1487	0.013	0.000857460832
22	1488	0.013	0.000478006483
22	1489	0.013	9.8552134e-005
22	1490	0.013	0.0009913272
22	1491	0.013	0.000616056175
22	1492	0.013	0.00098235462
22	1493	0.013	0.00059468864
22	1494	0.013	0.000658478731
22	1495	0.013	0.000284493238
22	1496	0.013	0.000874951504
22	1497	0.013	0.0006449617
22	1498	0.013	0.000716584966
22	1499	0.013	0.00024078515
22	1500	0.013	0.00020702266
22	1501	0.013	0.000507525792
22	1502	0.013	0.0002705666
22	1503	0.013	0.000344360268
22	1504	0.013	0.00014010008
22	1603	0.014	0.000844162638
22	1604	0.014	0.000457226245
22	1605	0.014	7.0289852e-005
22	1606	0.014	0.000850932718
22	1607	0.014	0.000464195445
22	1608	0.014	7.7458172e-005
22	1609	0.014	0.00097748735
22	1610	0.014	0.00060541556
22	1611	0.014	0.00023334377
22	1612	0.014	0.000719097785
22	1613	0.014	0.000339643436
22	1614	0.014	0.000865514125
22	1615	0.014	0.0004902431
22	1616	0.014	0.00081935668
22	1617	0.014	0.0004316907
22	1618	0.014	0.000910507745
22	1619	0.014	0.000536522252
22	1620	0.014	0.000772674368
22	1621	0.014	0.0008961715
22	1622	0.014	0.00097213557
22	1623	0.014	0.000114972075
22	1624	0.014	4.402472e-005
22	1625	0.014	0.000162536759
22	1626	0.014	0.000405248656
22	1627	0.014	0.0005217764
22	1628	0.014	0.000599910872
22	1629	0.014	3.7822944e-005
22	1630	0.014	0.0001473813
22	1631	0.014	0.000227686174
22	1719	0.015	0.000683353459
22	1720	0.015	0.000296417066
22	1721	0.015	0.000690720899
22	1722	0.015	0.000303983626
22	1723	0.015	0.00086127198
22	1724	0.015	0.00048920019
22	1725	0.015	0.0001171284
22	1726	0.015	0.000960189087
22	1727	0.015	0.000580734738
22	1728	0.015	0.000201280389
22	1729	0.015	0.00073970105
22	1730	0.015	0.000364430025
22	1731	0.015	0.00065635874
22	1732	0.015	0.00026869276
22	1733	0.015	0.000788551266
22	1734	0.015	0.000414565773
22	1735	0.015	0.000670397232
22	1736	0.015	0.0007729862
22	1737	0.015	0.000855461476
22	1738	0.015	4.058028e-005
22	1739	0.015	0.00030297152
22	1740	0.015	0.0003985911
22	1741	0.015	0.000483236778
22	1742	0.015	2.4196e-005
22	1743	0.015	0.00011101208
22	1835	0.016	0.000909480673
22	1836	0.016	0.00052254428
22	1837	0.016	0.000135607887
22	1838	0.016	0.000917246353
22	1839	0.016	0.00053050908
22	1840	0.016	0.000143771807
22	1841	0.016	0.00074505661
22	1842	0.016	0.00037298482
22	1843	0.016	9.1303e-007
22	1844	0.016	0.00082182604
22	1845	0.016	0.000442371691
22	1846	0.016	6.2917342e-005
22	1847	0.016	0.000989159
22	1848	0.016	0.000613887975
22	1849	0.016	0.00088102678
22	1850	0.016	0.0004933608
22	1851	0.016	0.000666594787
22	1852	0.016	0.000292609294
22	1853	0.016	0.000935545808
22	1854	0.016	0.0006498009
22	1855	0.016	0.000738787382
22	1856	0.016	0.00023861695
22	1857	0.016	0.00010569482
22	1858	0.016	0.000568120096
22	1859	0.016	0.0002754058
22	1860	0.016	0.000366562684
22	1861	0.016	0.000200694384
22	1951	0.017	0.000748671494
22	1952	0.017	0.000361735101
22	1953	0.017	0.000757034534
22	1954	0.017	0.000370297261
22	1955	0.017	0.00062884124
22	1956	0.017	0.00025676945
22	1957	0.017	0.000683462993
22	1958	0.017	0.000304008644
22	1959	0.017	0.000863345925
22	1960	0.017	0.0004880749
22	1961	0.017	0.00071802884
22	1962	0.017	0.00033036286
22	1963	0.017	0.000918623801
22	1964	0.017	0.000544638308
22	1965	0.017	0.000833268672
22	1966	0.017	0.0009010107
22	1967	0.017	0.000994337986
22	1968	0.017	0.000112803875
22	1969	0.017	0.000170652815
22	1970	0.017	0.00046584296
22	1971	0.017	0.0005266156
22	1972	0.017	0.000622113288
22	1973	0.017	9.8417248e-005
22	1974	0.017	0.0001522205
22	1975	0.017	0.00024988859
22	2070	0.018	0.000974798708
22	2071	0.018	0.000587862315
22	2072	0.018	0.000200925922
22	2073	0.018	0.000983559988
22	2074	0.018	0.000596822715
22	2075	0.018	0.000210085442
22	2076	0.018	0.00088469766
22	2077	0.018	0.00051262587
22	2078	0.018	0.00014055408
22	2079	0.018	0.000924554295
22	2080	0.018	0.000545099946
22	2081	0.018	0.000165645597
22	2082	0.018	0.00073753285
22	2083	0.018	0.000362261825
22	2084	0.018	0.00094269688
22	2085	0.018	0.0005550309
22	2086	0.018	0.000796667322
22	2087	0.018	0.000422681829
22	2088	0.018	0.000730991536
22	2089	0.018	0.0007778254
22	2090	0.018	0.000877663892
22	2091	0.018	0.00016736492
22	2092	0.018	4.8696336e-005
22	2093	0.018	0.000363565824
22	2094	0.018	0.0004034303
22	2095	0.018	0.000505439194
22	2096	0.018	2.90352e-005
22	2097	0.018	0.000133214496
22	2192	0.019	0.000813989529
22	2193	0.019	0.000427053136
22	2194	0.019	4.0116743e-005
22	2195	0.019	0.000823348169
22	2196	0.019	0.000436610896
22	2197	0.019	4.9873623e-005
22	2198	0.019	0.00076848229
22	2199	0.019	0.0003964105
22	2200	0.019	2.433871e-005
22	2201	0.019	0.000786191248
22	2202	0.019	0.000406736899
22	2203	0.019	2.728255e-005
22	2204	0.019	0.0009869908
22	2205	0.019	0.000611719775
22	2206	0.019	0.00077969894
22	2207	0.019	0.00039203296
22	2208	0.019	0.000674710843
22	2209	0.019	0.00030072535
22	2210	0.019	0.000996140112
22	2211	0.019	0.0006546401
22	2212	0.019	0.000760989798
22	2213	0.019	0.00023644875
22	2214	0.019	4.36698e-006
22	2215	0.019	0.0006287144
22	2216	0.019	0.000280245
22	2217	0.019	0.0003887651
22	2218	0.019	0.000261288688
22	2219	0.019	1.6540402e-005
22	2306	0.02	0.00065318035
22	2307	0.02	0.000266243957
22	2308	0.02	0.00066313635
22	2309	0.02	0.000276399077
22	2310	0.02	0.00065226692
22	2311	0.02	0.00028019513
22	2312	0.02	0.000647828201
22	2313	0.02	0.000268373852
22	2314	0.02	0.000861177725
22	2315	0.02	0.0004859067
22	2316	0.02	0.000616701
22	2317	0.02	0.00022903502
22	2318	0.02	0.000926739857
22	2319	0.02	0.000552754364
22	2320	0.02	0.000893862976
22	2321	0.02	0.0009058499
22	2322	0.02	0.000644315704
22	2323	0.02	0.000110635675
22	2324	0.02	0.000178768871
22	2325	0.02	0.000526437264
22	2326	0.02	0.0005314548
22	2327	0.02	0.000272091006
22	2328	0.02	0.000159011552
22	2329	0.02	0.0001570597
22	2427	0.021	0.000879307564
22	2428	0.021	0.000492371171
22	2429	0.021	0.000105434778
22	2430	0.021	0.000889661804
22	2431	0.021	0.000502924531
22	2432	0.021	0.000116187258
22	2433	0.021	0.00090812334
22	2434	0.021	0.00053605155
22	2435	0.021	0.00016397976
22	2436	0.021	0.000888919503
22	2437	0.021	0.000509465154
22	2438	0.021	0.000130010805
22	2439	0.021	0.00073536465
22	2440	0.021	0.000360093625
22	2441	0.021	0.00084136904
22	2442	0.021	0.00045370306
22	2443	0.021	0.000804783378
22	2444	0.021	0.000430797885
22	2445	0.021	0.00079158584
22	2446	0.021	0.0007826646
22	2447	0.021	0.000899866308
22	2448	0.021	6.603708e-005
22	2449	0.021	5.6812392e-005
22	2450	0.021	0.000424160128
22	2451	0.021	0.0004082695
22	2452	0.021	0.00052764161
22	2453	0.021	5.6734416e-005
22	2454	0.021	3.38744e-005
22	2455	0.021	0.000155416912
22	2538	0.022	0.000718498385
22	2539	0.022	0.000331561992
22	2540	0.022	0.000729449985
22	2541	0.022	0.000342712712
22	2542	0.022	0.00079190797
22	2543	0.022	0.00041983618
22	2544	0.022	4.776439e-005
22	2545	0.022	0.000750556456
22	2546	0.022	0.000371102107
22	2547	0.022	0.0009848226
22	2548	0.022	0.000609551575
22	2549	0.022	0.0006783711
22	2550	0.022	0.00029070512
22	2551	0.022	0.000682826899
22	2552	0.022	0.000308841406
22	2553	0.022	0.000689308704
22	2554	0.022	0.0006594793
22	2555	0.022	0.000783192214
22	2556	0.022	0.00023428055
22	2557	0.022	0.000321882992
22	2558	0.022	0.0002850842
22	2559	0.022	0.000410967516
22	2560	0.022	3.8742818e-005
22	2656	0.023	0.000944625599
22	2657	0.023	0.000557689206
22	2658	0.023	0.000170752813
22	2659	0.023	0.000955975439
22	2660	0.023	0.000569238166
22	2661	0.023	0.000182500893
22	2662	0.023	0.0006756926
22	2663	0.023	0.00030362081
22	2664	0.023	0.000991647758
22	2665	0.023	0.000612193409
22	2666	0.023	0.00023273906
22	2667	0.023	0.000859009525
22	2668	0.023	0.0004837385
22	2669	0.023	0.00090303914
22	2670	0.023	0.00051537316
22	2671	0.023	0.000934855913
22	2672	0.023	0.00056087042
22	2673	0.023	0.00095445728
22	2674	0.023	0.0009106891
22	2675	0.023	0.00066651812
22	2676	0.023	0.000108467475
22	2677	0.023	0.00012770718
22	2678	0.023	0.000186884927
22	2679	0.023	0.000587031568
22	2680	0.023	0.000536294
22	2681	0.023	0.000294293422
22	2682	0.023	0.000219605856
22	2683	0.023	0.0001618989
22	2778	0.024	0.00078381642
22	2779	0.024	0.000396880027
22	2780	0.024	9.943634e-006
22	2781	0.024	0.00079576362
22	2782	0.024	0.000409026347
22	2783	0.024	2.2289074e-005
22	2784	0.024	0.00093154902
22	2785	0.024	0.00055947723
22	2786	0.024	0.00018740544
22	2787	0.024	0.000853284711
22	2788	0.024	0.000473830362
22	2789	0.024	9.4376013e-005
22	2790	0.024	0.00073319645
22	2791	0.024	0.000357925425
22	2792	0.024	0.0007400412
22	2793	0.024	0.00035237522
22	2794	0.024	0.000812899434
22	2795	0.024	0.000438913941
22	2796	0.024	0.000852180144
22	2797	0.024	0.0007875038
22	2798	0.024	0.000922068724
22	2799	0.024	6.4928448e-005
22	2800	0.024	0.000484754432
22	2801	0.024	0.0004131087
22	2802	0.024	0.000549844026
22	2803	0.024	0.00011732872
22	2804	0.024	3.87136e-005
22	2805	0.024	0.000177619328
22	2894	0.025	0.000623007241
22	2895	0.025	0.000236070848
22	2896	0.025	0.000635551801
22	2897	0.025	0.000248814528
22	2898	0.025	0.00081533365
22	2899	0.025	0.00044326186
22	2900	0.025	7.119007e-005
22	2901	0.025	0.000714921664
22	2902	0.025	0.000335467315
22	2903	0.025	0.0009826544
22	2904	0.025	0.000607383375
22	2905	0.025	0.00096470924
22	2906	0.025	0.00057704326
22	2907	0.025	0.000690942955
22	2908	0.025	0.000316957462
22	2909	0.025	0.000749903008
22	2910	0.025	0.0006643185
22	2911	0.025	0.00080539463
22	2912	0.025	0.00023211235
22	2913	0.025	0.00018937728
22	2914	0.025	0.000382477296
22	2915	0.025	0.0002899234
22	2916	0.025	0.000433169932
22	2917	0.025	1.5051584e-005
22	2918	0.025	6.0945234e-005
22	3011	0.026	0.000849134455
22	3012	0.026	0.000462198062
22	3013	0.026	7.5261669e-005
22	3014	0.026	0.000862077255
22	3015	0.026	0.000475339982
22	3016	0.026	8.8602709e-005
22	3017	0.026	0.00069911828
22	3018	0.026	0.00032704649
22	3019	0.026	0.000956012966
22	3020	0.026	0.000576558617
22	3021	0.026	0.000197104268
22	3022	0.026	0.000856841325
22	3023	0.026	0.0004815703
22	3024	0.026	0.0008017113
22	3025	0.026	0.00041404532
22	3026	0.026	0.000942971969
22	3027	0.026	0.000568986476
22	3028	0.026	0.000647625872
22	3029	0.026	0.0009155283
22	3030	0.026	0.000688720536
22	3031	0.026	0.000106299275
22	3032	0.026	2.637934e-005
22	3033	0.026	0.000195000983
22	3034	0.026	0.00028020016
22	3035	0.026	0.0005411332
22	3036	0.026	0.000316495838
22	3037	0.026	0.0001667381
22	3128	0.027	0.000688325276
22	3129	0.027	0.000301388883
22	3130	0.027	0.000701865436
22	3131	0.027	0.000315128163
22	3132	0.027	0.0009549747
22	3133	0.027	0.00058290291
22	3134	0.027	0.00021083112
22	3135	0.027	0.000817649919
22	3136	0.027	0.00043819557
22	3137	0.027	5.8741221e-005
22	3138	0.027	0.00073102825
22	3139	0.027	0.000355757225
22	3140	0.027	0.00063871336
22	3141	0.027	0.00025104738
22	3142	0.027	0.00082101549
22	3143	0.027	0.000447029997
22	3144	0.027	0.000912774448
22	3145	0.027	0.000792343
22	3146	0.027	0.00094427114
22	3147	0.027	7.3044504e-005
22	3148	0.027	0.000545348736
22	3149	0.027	0.0004179479
22	3150	0.027	0.000572046442
22	3151	0.027	0.000177923024
22	3152	0.027	4.35528e-005
22	3153	0.027	0.000199821744
22	3246	0.028	0.00091445249
22	3247	0.028	0.000527516097
22	3248	0.028	0.000140579704
22	3249	0.028	0.00092839089
22	3250	0.028	0.000541653617
22	3251	0.028	0.000154916344
22	3252	0.028	0.00083875933
22	3253	0.028	0.00046668754
22	3254	0.028	9.461575e-005
22	3255	0.028	0.000679286872
22	3256	0.028	0.000299832523
22	3257	0.028	0.0009804862
22	3258	0.028	0.000605215175
22	3259	0.028	0.0008633814
22	3260	0.028	0.00047571542
22	3261	0.028	0.000699059011
22	3262	0.028	0.000325073518
22	3263	0.028	0.000810497312
22	3264	0.028	0.0006691577
22	3265	0.028	0.000827597046
22	3266	0.028	0.00022994415
22	3267	0.028	8.804944e-005
22	3268	0.028	0.0004430716
22	3269	0.028	0.0002947626
22	3270	0.028	0.000455372348
22	3271	0.028	7.5645888e-005
22	3272	0.028	8.314765e-005
22	3358	0.029	0.000753643311
22	3359	0.029	0.000366706918
22	3360	0.029	0.000768179071
22	3361	0.029	0.000381441798
22	3362	0.029	0.00072254396
22	3363	0.029	0.00035047217
22	3364	0.029	0.000920378174
22	3365	0.029	0.000540923825
22	3366	0.029	0.000161469476
22	3367	0.029	0.000854673125
22	3368	0.029	0.0004794021
22	3369	0.029	0.00070038346
22	3370	0.029	0.00031271748
22	3371	0.029	0.000951088025
22	3372	0.029	0.000577102532
22	3373	0.029	0.000708220176
22	3374	0.029	0.0009203675
22	3375	0.029	0.000710922952
22	3376	0.029	0.000104131075
22	3377	0.029	0.000203117039
22	3378	0.029	0.000340794464
22	3379	0.029	0.0005459724
22	3380	0.029	0.000338698254
22	3381	0.029	0.0001715773
22	3479	0.03	0.000979770525
22	3480	0.03	0.000592834132
22	3481	0.03	0.000205897739
22	3482	0.03	0.000994704525
22	3483	0.03	0.000607967252
22	3484	0.03	0.000221229979
22	3485	0.03	0.00097840038
22	3486	0.03	0.00060632859
22	3487	0.03	0.0002342568
22	3488	0.03	0.000782015127
22	3489	0.03	0.000402560778
22	3490	0.03	2.3106429e-005
22	3491	0.03	0.00072886005
22	3492	0.03	0.000353589025
22	3493	0.03	0.0009250515
22	3494	0.03	0.00053738552
22	3495	0.03	0.000829131546
22	3496	0.03	0.000455146053
22	3497	0.03	0.000973368752
22	3498	0.03	0.0007971822
22	3499	0.03	0.000966473556
22	3500	0.03	0.00014971954
22	3501	0.03	8.116056e-005
22	3502	0.03	0.00060594304
22	3503	0.03	0.0004227871
22	3504	0.03	0.000594248858
22	3505	0.03	0.000238517328
22	3506	0.03	4.8392e-005
22	3507	0.03	0.00022202416
22	3597	0.031	0.000818961346
22	3598	0.031	0.000432024953
22	3599	0.031	4.508856e-005
22	3600	0.031	0.000834492706
22	3601	0.031	0.000447755433
22	3602	0.031	6.101816e-005
22	3603	0.031	0.00086218501
22	3604	0.031	0.00049011322
22	3605	0.031	0.00011804143
22	3606	0.031	0.00064365208
22	3607	0.031	0.000264197731
22	3608	0.031	0.000978318
22	3609	0.031	0.000603046975
22	3610	0.031	0.00076205356
22	3611	0.031	0.00037438758
22	3612	0.031	0.000707175067
22	3613	0.031	0.000333189574
22	3614	0.031	0.000871091616
22	3615	0.031	0.0006739969
22	3616	0.031	0.000849799462
22	3617	0.031	0.00022777595
22	3618	0.031	0.000503665904
22	3619	0.031	0.0002996018
22	3620	0.031	0.000477574764
22	3621	0.031	0.000136240192
22	3622	0.031	0.000105350066
22	3716	0.032	0.000658152167
22	3717	0.032	0.000271215774
22	3718	0.032	0.000674280887
22	3719	0.032	0.000287543614
22	3720	0.032	0.00074596964
22	3721	0.032	0.00037389785
22	3722	0.032	1.82606e-006
22	3723	0.032	0.000884743382
22	3724	0.032	0.000505289033
22	3725	0.032	0.000125834684
22	3726	0.032	0.000852504925
22	3727	0.032	0.0004772339
22	3728	0.032	0.0009867216
22	3729	0.032	0.00059905562
22	3730	0.032	0.000959204081
22	3731	0.032	0.000585218588
22	3732	0.032	0.00076881448
22	3733	0.032	0.0009252067
22	3734	0.032	0.000733125368
22	3735	0.032	0.000101962875
22	3736	0.032	0.00021138964
22	3737	0.032	0.000211233095
22	3738	0.032	0.000401388768
22	3739	0.032	0.0005508116
22	3740	0.032	0.00036090067
22	3741	0.032	3.3963056e-005
22	3742	0.032	0.0001764165
22	3833	0.033	0.000884279381
22	3834	0.033	0.000497342988
22	3835	0.033	0.000110406595
22	3836	0.033	0.000900806341
22	3837	0.033	0.000514069068
22	3838	0.033	0.000127331795
22	3839	0.033	0.00062975427
22	3840	0.033	0.00025768248
22	3841	0.033	0.000746380335
22	3842	0.033	0.000366925986
22	3843	0.033	0.00072669185
22	3844	0.033	0.000351420825
22	3845	0.033	0.00082372366
22	3846	0.033	0.00043605768
22	3847	0.033	0.000837247602
22	3848	0.033	0.000463262109
22	3849	0.033	0.000666537344
22	3850	0.033	0.0008020214
22	3851	0.033	0.000988675972
22	3852	0.033	4.83917e-005
22	3853	0.033	8.9276616e-005
22	3854	0.033	0.000299111632
22	3855	0.033	0.0004276263
22	3856	0.033	0.000616451274
22	3857	0.033	5.32312e-005
22	3858	0.033	0.000244226576
22	3946	0.034	0.000723470202
22	3947	0.034	0.000336533809
22	3948	0.034	0.000740594522
22	3949	0.034	0.000353857249
22	3950	0.034	0.00088561069
22	3951	0.034	0.0005135389
22	3952	0.034	0.00014146711
22	3953	0.034	0.000987471637
22	3954	0.034	0.000608017288
22	3955	0.034	0.000228562939
22	3956	0.034	0.0009761498
22	3957	0.034	0.000600878775
22	3958	0.034	0.00066072572
22	3959	0.034	0.00027305974
22	3960	0.034	0.000715291123
22	3961	0.034	0.00034130563
22	3962	0.034	0.00093168592
22	3963	0.034	0.0006788361
22	3964	0.034	0.000872001878
22	3965	0.034	0.00022560775
22	3966	0.034	0.000564260208
22	3967	0.034	0.000304441
22	3968	0.034	0.00049977718
22	3969	0.034	0.000196834496
22	3970	0.034	0.000127552482
22	4071	0.035	0.000949597416
22	4072	0.035	0.000562661023
22	4073	0.035	0.00017572463
22	4074	0.035	0.000967119976
22	4075	0.035	0.000580382703
22	4076	0.035	0.00019364543
22	4077	0.035	0.00076939532
22	4078	0.035	0.00039732353
22	4079	0.035	2.525174e-005
22	4080	0.035	0.00084910859
22	4081	0.035	0.000469654241
22	4082	0.035	9.0199892e-005
22	4083	0.035	0.000850336725
22	4084	0.035	0.0004750657
22	4085	0.035	0.00088539376
22	4086	0.035	0.00049772778
22	4087	0.035	0.000967320137
22	4088	0.035	0.000593334644
22	4089	0.035	0.000829408784
22	4090	0.035	0.0009300459
22	4091	0.035	0.000755327784
22	4092	0.035	9.9794675e-005
22	4093	0.035	0.0001100618
22	4094	0.035	0.000219349151
22	4095	0.035	0.000461983072
22	4096	0.035	0.0005556508
22	4097	0.035	0.000383103086
22	4098	0.035	9.455736e-005
22	4099	0.035	0.0001812557
22	4100	0.035	1.0878388e-005
22	4185	0.036	0.000788788237
22	4186	0.036	0.000401851844
22	4187	0.036	1.4915451e-005
22	4188	0.036	0.000806908157
22	4189	0.036	0.000420170884
22	4190	0.036	3.3433611e-005
22	4191	0.036	0.00065317995
22	4192	0.036	0.00028110816
22	4193	0.036	0.000710745543
22	4194	0.036	0.000331291194
22	4195	0.036	0.00072452365
22	4196	0.036	0.000349252625
22	4197	0.036	0.00072239582
22	4198	0.036	0.00033472984
22	4199	0.036	0.000845363658
22	4200	0.036	0.000471378165
22	4201	0.036	0.000727131648
22	4202	0.036	0.0008068606
22	4203	0.036	0.00063865369
22	4204	0.036	9.7392672e-005
22	4205	0.036	0.000359705936
22	4206	0.036	0.0004324655
22	4207	0.036	0.000266428992
22	4208	0.036	5.80704e-005
22	4299	0.037	0.000627979058
22	4300	0.037	0.000241042665
22	4301	0.037	0.000646696338
22	4302	0.037	0.000259959065
22	4303	0.037	0.00090903637
22	4304	0.037	0.00053696458
22	4305	0.037	0.00016489279
22	4306	0.037	0.000951836845
22	4307	0.037	0.000572382496
22	4308	0.037	0.000192928147
22	4309	0.037	0.0009739816
22	4310	0.037	0.000598710575
22	4311	0.037	0.00094706386
22	4312	0.037	0.00055939788
22	4313	0.037	0.000723407179
22	4314	0.037	0.000349421686
22	4315	0.037	0.000992280224
22	4316	0.037	0.0006836753
22	4317	0.037	0.000894204294
22	4318	0.037	0.00022343955
22	4319	0.037	0.0001717319
22	4320	0.037	0.000624854512
22	4321	0.037	0.0003092802
22	4322	0.037	0.000521979596
22	4323	0.037	0.0002574288
22	4324	0.037	0.000149754898
22	4425	0.038	0.000854106272
22	4426	0.038	0.000467169879
22	4427	0.038	8.0233486e-005
22	4428	0.038	0.000873221792
22	4429	0.038	0.000486484519
22	4430	0.038	9.9747246e-005
22	4431	0.038	0.000792821
22	4432	0.038	0.00042074921
22	4433	0.038	4.867742e-005
22	4434	0.038	0.000813473798
22	4435	0.038	0.000434019449
22	4436	0.038	5.45651e-005
22	4437	0.038	0.000848168525
22	4438	0.038	0.0004728975
22	4439	0.038	0.00078406592
22	4440	0.038	0.00039639994
22	4441	0.038	0.000975436193
22	4442	0.038	0.0006014507
22	4443	0.038	0.000890003088
22	4444	0.038	0.0009348851
22	4445	0.038	0.0007775302
22	4446	0.038	9.7626475e-005
22	4447	0.038	8.73396e-006
22	4448	0.038	0.000227465207
22	4449	0.038	0.000522577376
22	4450	0.038	0.00056049
22	4451	0.038	0.000405305502
22	4452	0.038	0.000155151664
22	4453	0.038	0.0001860949
22	4454	0.038	3.3080804e-005
22	4538	0.039	0.000693297093
22	4539	0.039	0.0003063607
22	4540	0.039	0.000713009973
22	4541	0.039	0.0003262727
22	4542	0.039	0.00067660563
22	4543	0.039	0.00030453384
22	4544	0.039	0.000675110751
22	4545	0.039	0.000295656402
22	4546	0.039	0.00072235545
22	4547	0.039	0.000347084425
22	4548	0.039	0.00062106798
22	4549	0.039	0.000233402
22	4550	0.039	0.000853479714
22	4551	0.039	0.000479494221
22	4552	0.039	0.000787725952
22	4553	0.039	0.0008116998
22	4554	0.039	0.000660856106
22	4555	0.039	0.000105508728
22	4556	0.039	0.00042030024
22	4557	0.039	0.0004373047
22	4558	0.039	0.000288631408
22	4559	0.039	5.2874528e-005
22	4560	0.039	6.29096e-005
22	4652	0.04	0.000919424307
22	4653	0.04	0.000532487914
22	4654	0.04	0.000145551521
22	4655	0.04	0.000939535427
22	4656	0.04	0.000552798154
22	4657	0.04	0.000166060881
22	4658	0.04	0.00093246205
22	4659	0.04	0.00056039026
22	4660	0.04	0.00018831847
22	4661	0.04	0.000916202053
22	4662	0.04	0.000536747704
22	4663	0.04	0.000157293355
22	4664	0.04	0.0009718134
22	4665	0.04	0.000596542375
22	4666	0.04	0.00084573602
22	4667	0.04	0.00045807004
22	4668	0.04	0.000731523235
22	4669	0.04	0.000357537742
22	4670	0.04	0.000685448816
22	4671	0.04	0.0006885145
22	4672	0.04	0.00091640671
22	4673	0.04	0.00022127135
22	4674	0.04	7.040406e-005
22	4675	0.04	0.000318023104
22	4676	0.04	0.0003141194
22	4677	0.04	0.000544182012
22	4678	0.04	0.000171957314
22	4774	0.041	0.000758615128
22	4775	0.041	0.000371678735
22	4776	0.041	0.000779323608
22	4777	0.041	0.000392586335
22	4778	0.041	5.849062e-006
22	4779	0.041	0.00081624668
22	4780	0.041	0.00044417489
22	4781	0.041	7.21031e-005
22	4782	0.041	0.000777839006
22	4783	0.041	0.000398384657
22	4784	0.041	1.8930308e-005
22	4785	0.041	0.000846000325
22	4786	0.041	0.0004707293
22	4787	0.041	0.00068273808
22	4788	0.041	0.0002950721
22	4789	0.041	0.000983552249
22	4790	0.041	0.000609566756
22	4791	0.041	0.000950597392
22	4792	0.041	0.0009397243
22	4793	0.041	0.000799732616
22	4794	0.041	9.5458275e-005
22	4795	0.041	0.000235581263
22	4796	0.041	0.00058317168
22	4797	0.041	0.0005653292
22	4798	0.041	0.000427507918
22	4799	0.041	0.000215745968
22	4800	0.041	0.0001909341
22	4801	0.041	5.528322e-005
22	4890	0.042	0.000984742342
22	4891	0.042	0.000597805949
22	4892	0.042	0.000210869556
22	4893	0.042	0.000619111789
22	4894	0.042	0.000232374516
22	4895	0.042	0.00070003131
22	4896	0.042	0.00032795952
22	4897	0.042	0.000639475959
22	4898	0.042	0.00026002161
22	4899	0.042	0.00072018725
22	4900	0.042	0.000344916225
22	4901	0.042	0.00090740612
22	4902	0.042	0.00051974014
22	4903	0.042	0.00086159577
22	4904	0.042	0.000487610277
22	4905	0.042	0.000848320256
22	4906	0.042	0.000816539
22	4907	0.042	0.000683058522
22	4908	0.042	0.00013207416
22	4909	0.042	0.000113624784
22	4910	0.042	0.000480894544
22	4911	0.042	0.0004421439
22	4912	0.042	0.000310833824
22	4913	0.042	0.000113468832
22	4914	0.042	6.77488e-005
22	5006	0.043	0.000823933163
22	5007	0.043	0.00043699677
22	5008	0.043	5.0060377e-005
22	5009	0.043	0.000845637243
22	5010	0.043	0.00045889997
22	5011	0.043	7.2162697e-005
22	5012	0.043	0.00095588773
22	5013	0.043	0.00058381594
22	5014	0.043	0.00021174415
22	5015	0.043	0.000880567261
22	5016	0.043	0.000501112912
22	5017	0.043	0.000121658563
22	5018	0.043	0.0009696452
22	5019	0.043	0.000594374175
22	5020	0.043	0.00074440818
22	5021	0.043	0.0003567422
22	5022	0.043	0.000739639291
22	5023	0.043	0.000365653798
22	5024	0.043	0.00074604312
22	5025	0.043	0.0006933537
22	5026	0.043	0.000938609126
22	5027	0.043	0.00021910315
22	5028	0.043	0.000378617408
22	5029	0.043	0.0003189586
22	5030	0.043	0.000566384428
22	5031	0.043	1.1191696e-005
22	5032	0.043	0.00019415973
22	5124	0.044	0.000663123984
22	5125	0.044	0.000276187591
22	5126	0.044	0.000685425424
22	5127	0.044	0.000298688151
22	5128	0.044	0.00083967236
22	5129	0.044	0.00046760057
22	5130	0.044	9.552878e-005
22	5131	0.044	0.000742204214
22	5132	0.044	0.000362749865
22	5133	0.044	0.000843832125
22	5134	0.044	0.0004685611
22	5135	0.044	0.00096907622
22	5136	0.044	0.00058141024
22	5137	0.044	0.000991668305
22	5138	0.044	0.000617682812
22	5139	0.044	0.000643765984
22	5140	0.044	0.0009445635
22	5141	0.044	0.000821935032
22	5142	0.044	9.3290075e-005
22	5143	0.044	0.00019374426
22	5144	0.044	0.000243697319
22	5145	0.044	0.000276340272
22	5146	0.044	0.0005701684
22	5147	0.044	0.000449710334
22	5148	0.044	0.0001957733
22	5149	0.044	7.7485636e-005
22	5242	0.045	0.000889251198
22	5243	0.045	0.000502314805
22	5244	0.045	0.000115378412
22	5245	0.045	0.000911950878
22	5246	0.045	0.000525213605
22	5247	0.045	0.000138476332
22	5248	0.045	0.00072345699
22	5249	0.045	0.0003513852
22	5250	0.045	0.000983295516
22	5251	0.045	0.000603841167
22	5252	0.045	0.000224386818
22	5253	0.045	0.00071801905
22	5254	0.045	0.000342748025
22	5255	0.045	0.00080607828
22	5256	0.045	0.0004184123
22	5257	0.045	0.000869711826
22	5258	0.045	0.000495726333
22	5259	0.045	0.00090891456
22	5260	0.045	0.0008213782
22	5261	0.045	0.000705260938
22	5262	0.045	3.074632e-005
22	5263	0.045	0.00012174084
22	5264	0.045	0.000541488848
22	5265	0.045	0.0004469831
22	5266	0.045	0.00033303624
22	5267	0.045	0.000174063136
22	5268	0.045	7.2588e-005
22	5356	0.046	0.000728442019
22	5357	0.046	0.000341505626
22	5358	0.046	0.000751739059
22	5359	0.046	0.000365001786
22	5360	0.046	0.00097931341
22	5361	0.046	0.00060724162
22	5362	0.046	0.00023516983
22	5363	0.046	0.000844932469
22	5364	0.046	0.00046547812
22	5365	0.046	8.6023771e-005
22	5366	0.046	0.000967477
22	5367	0.046	0.000592205975
22	5368	0.046	0.00064308034
22	5369	0.046	0.00025541436
22	5370	0.046	0.000747755347
22	5371	0.046	0.000373769854
22	5372	0.046	0.000806637424
22	5373	0.046	0.0006981929
22	5374	0.046	0.000960811542
22	5375	0.046	0.00021693495
22	5376	0.046	0.000439211712
22	5377	0.046	0.0003237978
22	5378	0.046	0.000588586844
22	5379	0.046	7.1786e-005
22	5380	0.046	0.000216362146
22	5476	0.047	0.000954569233
22	5477	0.047	0.00056763284
22	5478	0.047	0.000180696447
22	5479	0.047	0.000978264513
22	5480	0.047	0.00059152724
22	5481	0.047	0.000204789967
22	5482	0.047	0.00086309804
22	5483	0.047	0.00049102625
22	5484	0.047	0.00011895446
22	5485	0.047	0.000706569422
22	5486	0.047	0.000327115073
22	5487	0.047	0.000841663925
22	5488	0.047	0.0004663929
22	5489	0.047	0.00086774838
22	5490	0.047	0.0004800824
22	5491	0.047	0.000999784361
22	5492	0.047	0.000625798868
22	5493	0.047	0.000704360288
22	5494	0.047	0.0009494027
22	5495	0.047	0.000844137448
22	5496	0.047	9.1121875e-005
22	5497	0.047	9.241642e-005
22	5498	0.047	0.000251813375
22	5499	0.047	0.000336934576
22	5500	0.047	0.0005750076
22	5501	0.047	0.00047191275
22	5502	0.047	0.0002006125
22	5503	0.047	9.9688052e-005
22	5595	0.048	0.000793760054
22	5596	0.048	0.000406823661
22	5597	0.048	1.9887268e-005
22	5598	0.048	0.000818052694
22	5599	0.048	0.000431315421
22	5600	0.048	4.4578148e-005
22	5601	0.048	0.00074688267
22	5602	0.048	0.00037481088
22	5603	0.048	2.73909e-006
22	5604	0.048	0.000947660724
22	5605	0.048	0.000568206375
22	5606	0.048	0.000188752026
22	5607	0.048	0.00071585085
22	5608	0.048	0.000340579825
22	5609	0.048	0.00070475044
22	5610	0.048	0.00031708446
22	5611	0.048	0.000877827882
22	5612	0.048	0.000503842389
22	5613	0.048	0.000969508864
22	5614	0.048	0.0008262174
22	5615	0.048	0.000727463354
22	5616	0.048	0.000129856896
22	5617	0.048	0.000602083152
22	5618	0.048	0.0004518223
22	5619	0.048	0.000355238656
22	5620	0.048	0.00023465744
22	5621	0.048	7.74272e-005
22	5713	0.049	0.000632950875
22	5714	0.049	0.000246014482
22	5715	0.049	0.000657840875
22	5716	0.049	0.000271103602
22	5717	0.049	0.0006306673
22	5718	0.049	0.00025859551
22	5719	0.049	0.000809297677
22	5720	0.049	0.000429843328
22	5721	0.049	5.0388979e-005
22	5722	0.049	0.0009653088
22	5723	0.049	0.000590037775
22	5724	0.049	0.00092941848
22	5725	0.049	0.0005417525
22	5726	0.049	0.000755871403
22	5727	0.049	0.00038188591
22	5728	0.049	0.000867231728
22	5729	0.049	0.0007030321
22	5730	0.049	0.000983013958
22	5731	0.049	0.00021476675
22	5732	0.049	0.00015408652
22	5733	0.049	7.900417e-006
22	5734	0.049	0.000499806016
22	5735	0.049	0.000328637
22	5736	0.049	0.00061078926
22	5737	0.049	0.000132380304
22	5738	0.049	0.000238564562
22	5831	0.05	0.000859078089
22	5832	0.05	0.000472141696
22	5833	0.05	8.5205303e-005
22	5834	0.05	0.000884366329
22	5835	0.05	0.000497629056
22	5836	0.05	0.000110891783
22	5837	0.05	0.00088652372
22	5838	0.05	0.00051445193
22	5839	0.05	0.00014238014
22	5840	0.05	0.00067093463
22	5841	0.05	0.000291480281
22	5842	0.05	0.000839495725
22	5843	0.05	0.0004642247
22	5844	0.05	0.00076642054
22	5845	0.05	0.00037875456
22	5846	0.05	0.000633914924
22	5847	0.05	0.000259929431
22	5848	0.05	0.000764954592
22	5849	0.05	0.0009542419
22	5850	0.05	0.000866339864
22	5851	0.05	8.8953675e-005
22	5852	0.05	0.00039752888
22	5853	0.05	0.0005798468
22	5854	0.05	0.000494115166
22	5855	0.05	3.0103168e-005
22	5856	0.05	0.0002054517
22	5857	0.05	0.000121890468
22	5948	0.051	0.00069826891
22	5949	0.051	0.000311332517
22	5950	0.051	0.00072415451
22	5951	0.051	0.000337417237
22	5952	0.051	0.00077030835
22	5953	0.051	0.00039823656
22	5954	0.051	2.616477e-005
22	5955	0.051	0.000912025932
22	5956	0.051	0.000532571583
22	5957	0.051	0.000153117234
22	5958	0.051	0.00071368265
22	5959	0.051	0.000338411625
22	5960	0.051	0.00099108858
22	5961	0.051	0.0006034226
22	5962	0.051	0.000885943938
22	5963	0.051	0.000511958445
22	5964	0.051	0.000662677456
22	5965	0.051	0.0008310566
22	5966	0.051	0.00074966577
22	5967	0.051	0.00021575662
22	5968	0.051	0.000137972952
22	5969	0.051	0.000295251744
22	5970	0.051	0.0004566615
22	5971	0.051	0.000377441072
22	5972	0.051	8.22664e-005
22	5973	0.051	5.216374e-006
22	6066	0.052	0.000924396124
22	6067	0.052	0.000537459731
22	6068	0.052	0.000150523338
22	6069	0.052	0.000950679964
22	6070	0.052	0.000563942691
22	6071	0.052	0.000177205418
22	6072	0.052	0.00065409298
22	6073	0.052	0.00028202119
22	6074	0.052	0.000773662885
22	6075	0.052	0.000394208536
22	6076	0.052	1.4754187e-005
22	6077	0.052	0.0009631406
22	6078	0.052	0.000587869575
22	6079	0.052	0.00082809064
22	6080	0.052	0.00044042466
22	6081	0.052	0.000763987459
22	6082	0.052	0.000390001966
22	6083	0.052	0.000927826032
22	6084	0.052	0.0007078713
22	6085	0.052	0.000632991676
22	6086	0.052	0.00021259855
22	6087	0.052	5.275868e-005
22	6088	0.052	1.6016473e-005
22	6089	0.052	0.00056040032
22	6090	0.052	0.0003334762
22	6091	0.052	0.000260766978
22	6092	0.052	0.000192974608
22	6183	0.053	0.000763586945
22	6184	0.053	0.000376650552
22	6185	0.053	0.000790468145
22	6186	0.053	0.000403730872
22	6187	0.053	1.6993599e-005
22	6188	0.053	0.0009099494
22	6189	0.053	0.00053787761
22	6190	0.053	0.00016580582
22	6191	0.053	0.000635299838
22	6192	0.053	0.000255845489
22	6193	0.053	0.000837327525
22	6194	0.053	0.0004620565
22	6195	0.053	0.0006650927
[...]
22	6897	0.059	0.000832991125
22	6898	0.059	0.0004577201
22	6899	0.059	0.000850103
22	6900	0.059	0.00046243702
22	6901	0.059	0.000658263092
22	6902	0.059	0.000284277599
22	6903	0.059	0.000946737504
22	6904	0.059	0.0009687595
22	6905	0.059	0.000932947112
22	6906	0.059	8.2449075e-005
22	6907	0.059	7.477104e-005
22	6908	0.059	0.000579311792
22	6909	0.059	0.0005943644
22	6910	0.059	0.000560722414
22	6911	0.059	0.00021188608
22	6912	0.059	0.0002199693
22	6913	0.059	0.000188497716
22	7008	0.06	0.000798731871
22	7009	0.06	0.000411795478
22	7010	0.06	2.4859085e-005
22	7011	0.06	0.000829197231
22	7012	0.06	0.000442459958
22	7013	0.06	5.5722685e-005
22	7014	0.06	0.00084058539
22	7015	0.06	0.0004685136
22	7016	0.06	9.644181e-005
22	7017	0.06	0.000805121556
22	7018	0.06	0.000425667207
22	7019	0.06	4.6212858e-005
22	7020	0.06	0.00070717805
22	7021	0.06	0.000331907025
22	7022	0.06	0.00068710506
22	7023	0.06	0.00029943908
22	7024	0.06	0.000910292106
22	7025	0.06	0.000536306613
22	7026	0.06	0.000844460368
22	7027	0.06	0.0008455742
22	7028	0.06	0.000816273018
22	7029	0.06	0.00016232112
22	7030	0.06	0.000477034656
22	7031	0.06	0.0004711791
22	7032	0.06	0.00044404832
22	7033	0.06	0.000109608944
22	7034	0.06	9.6784e-005
22	7035	0.06	7.1823622e-005
22	7122	0.061	0.000637922692
22	7123	0.061	0.000250986299
22	7124	0.061	0.000668985412
22	7125	0.061	0.000282248139
22	7126	0.061	0.00072437002
22	7127	0.061	0.00035229823
22	7128	0.061	0.000666758509
22	7129	0.061	0.00028730416
22	7130	0.061	0.000956636
22	7131	0.061	0.000581364975
22	7132	0.061	0.0009117731
22	7133	0.061	0.00052410712
22	7134	0.061	0.000788335627
22	7135	0.061	0.000414350134
22	7136	0.061	0.000742183232
22	7137	0.061	0.0007223889
22	7138	0.061	0.000699598924
22	7139	0.061	0.00020609395
22	7140	0.061	0.00013644114
22	7141	0.061	4.0364641e-005
22	7142	0.061	0.00037475752
22	7143	0.061	0.0003479938
22	7144	0.061	0.000327374226
22	7145	0.061	7.331808e-006
22	7237	0.062	0.000864049906
22	7238	0.062	0.000477113513
22	7239	0.062	9.017712e-005
22	7240	0.062	0.000895510866
22	7241	0.062	0.000508773593
22	7242	0.062	0.00012203632
22	7243	0.062	0.00098022644
22	7244	0.062	0.00060815465
22	7245	0.062	0.00023608286
22	7246	0.062	0.000907849811
22	7247	0.062	0.000528395462
22	7248	0.062	0.000148941113
22	7249	0.062	0.000830822925
22	7250	0.062	0.0004555519
22	7251	0.062	0.00074877516
22	7252	0.062	0.00036110918
22	7253	0.062	0.000666379148
22	7254	0.062	0.000292393655
22	7255	0.062	0.000639906096
22	7256	0.062	0.0009735987
22	7257	0.062	0.000955149528
22	7258	0.062	8.0280875e-005
22	7259	0.062	0.000272480384
22	7260	0.062	0.0005992036
22	7261	0.062	0.00058292483
22	7262	0.062	0.0002248085
22	7263	0.062	0.000210700132
22	7357	0.063	0.000703240727
22	7358	0.063	0.000316304334
22	7359	0.063	0.000735299047
22	7360	0.063	0.000348561774
22	7361	0.063	0.00086401107
22	7362	0.063	0.00049193928
22	7363	0.063	0.00011986749
22	7364	0.063	0.000769486764
22	7365	0.063	0.000390032415
22	7366	0.063	1.0578066e-005
22	7367	0.063	0.00070500985
22	7368	0.063	0.000329738825
22	7369	0.063	0.0009734432
22	7370	0.063	0.00058577722
22	7371	0.063	0.000918408162
22	7372	0.063	0.000544422669
22	7373	0.063	0.000905054672
22	7374	0.063	0.0008504134
22	7375	0.063	0.000838475434
22	7376	0.063	0.00019811124
22	7377	0.063	0.000170437176
22	7378	0.063	0.00053762896
22	7379	0.063	0.0004760183
22	7380	0.063	0.000466250736
22	7381	0.063	0.000170203248
22	7382	0.063	0.0001016232
22	7383	0.063	9.4026038e-005
22	7476	0.064	0.000929367941
22	7477	0.064	0.000542431548
22	7478	0.064	0.000155495155
22	7479	0.064	0.000961824501
22	7480	0.064	0.000575087228
22	7481	0.064	0.000188349955
22	7482	0.064	0.0007477957
22	7483	0.064	0.00037572391
22	7484	0.064	3.65212e-006
22	7485	0.064	0.000631123717
22	7486	0.064	0.000251669368
22	7487	0.064	0.0009544678
22	7488	0.064	0.000579196775
22	7489	0.064	0.00081044526
22	7490	0.064	0.00042277928
22	7491	0.064	0.000796451683
22	7492	0.064	0.00042246619
22	7493	0.064	0.000802777536
22	7494	0.064	0.0007272281
22	7495	0.064	0.00072180134
22	7496	0.064	0.00020392575
22	7497	0.064	3.51133e-005
22	7498	0.064	4.8480697e-005
22	7499	0.064	0.000435351824
22	7500	0.064	0.000352833
22	7501	0.064	0.000349576642
22	7502	0.064	6.7926112e-005
22	7590	0.065	0.000768558762
22	7591	0.065	0.000381622369
22	7592	0.065	0.000801612682
22	7593	0.065	0.000414875409
22	7594	0.065	2.8138136e-005
22	7595	0.065	0.00063158033
22	7596	0.065	0.00025950854
22	7597	0.065	0.000872215019
22	7598	0.065	0.00049276067
22	7599	0.065	0.000113306321
22	7600	0.065	0.000828654725
22	7601	0.065	0.0004533837
22	7602	0.065	0.00064744732
22	7603	0.065	0.00025978134
22	7604	0.065	0.000674495204
22	7605	0.065	0.000300509711
22	7606	0.065	0.0007005004
22	7607	0.065	0.0009784379
22	7608	0.065	0.000977351944
22	7609	0.065	7.8112675e-005
22	7610	0.065	0.000333074688
22	7611	0.065	0.0006040428
22	7612	0.065	0.000605127246
22	7613	0.065	0.0002296477
22	7614	0.065	0.000232902548
22	7708	0.066	0.000994685976
22	7709	0.066	0.000607749583
22	7710	0.066	0.00022081319
22	7711	0.066	0.000641400863
22	7712	0.066	0.00025466359
22	7713	0.066	0.00088743675
22	7714	0.066	0.00051536496
22	7715	0.066	0.00014329317
22	7716	0.066	0.000733851972
22	7717	0.066	0.000354397623
22	7718	0.066	0.00070284165
22	7719	0.066	0.000327570625
22	7720	0.066	0.00087211536
22	7721	0.066	0.00048444938
22	7722	0.066	0.000926524218
22	7723	0.066	0.000552538725
22	7724	0.066	0.000965648976
22	7725	0.066	0.0008552526
22	7726	0.066	0.00086067785
22	7727	0.066	9.67834e-005
22	7728	0.066	0.000178553232
22	7729	0.066	0.000598223264
22	7730	0.066	0.0004808575
22	7731	0.066	0.000488453152
22	7732	0.066	0.000230797552
22	7733	0.066	0.0001064624
22	7734	0.066	0.000116228454
22	7826	0.067	0.000833876797
22	7827	0.067	0.000446940404
22	7828	0.067	6.0004011e-005
22	7829	0.067	0.000867926317
22	7830	0.067	0.000481189044
22	7831	0.067	9.4451771e-005
22	7832	0.067	0.00077122138
22	7833	0.067	0.00039914959
22	7834	0.067	2.70778e-005
22	7835	0.067	0.000974943274
22	7836	0.067	0.000595488925
22	7837	0.067	0.000216034576
22	7838	0.067	0.0009522996
22	7839	0.067	0.000577028575
22	7840	0.067	0.00070911742
22	7841	0.067	0.00032145144
22	7842	0.067	0.000804567739
22	7843	0.067	0.000430582246
22	7844	0.067	0.00086337184
22	7845	0.067	0.0007320673
22	7846	0.067	0.000744003756
22	7847	0.067	0.00020175755
22	7848	0.067	5.6596753e-005
22	7849	0.067	0.000495946128
22	7850	0.067	0.0003576722
22	7851	0.067	0.000371779058
22	7852	0.067	0.000128520416
22	7944	0.068	0.000673067618
22	7945	0.068	0.000286131225
22	7946	0.068	0.000707714498
22	7947	0.068	0.000320977225
22	7948	0.068	0.00065500601
22	7949	0.068	0.00028293422
22	7950	0.068	0.000836580227
22	7951	0.068	0.000457125878
22	7952	0.068	7.7671529e-005
22	7953	0.068	0.000826486525
22	7954	0.068	0.0004512155
22	7955	0.068	0.00093378546
22	7956	0.068	0.00054611948
22	7957	0.068	0.00068261126
22	7958	0.068	0.000308625767
22	7959	0.068	0.000761094704
22	7960	0.068	0.0009832771
22	7961	0.068	0.00099955436
22	7962	0.068	7.5944475e-005
22	7963	0.068	0.0001584535
22	7964	0.068	0.000393668992
22	7965	0.068	0.000608882
22	7966	0.068	0.000627329662
22	7967	0.068	2.624328e-005
22	7968	0.068	0.0002344869
22	7969	0.068	0.000255104964
22	8059	0.069	0.000899194832
22	8060	0.069	0.000512258439
22	8061	0.069	0.000125322046
22	8062	0.069	0.000934239952
22	8063	0.069	0.000547502679
22	8064	0.069	0.000160765406
22	8065	0.069	0.00091086243
22	8066	0.069	0.00053879064
22	8067	0.069	0.00016671885
22	8068	0.069	0.00069821718
22	8069	0.069	0.000318762831
22	8070	0.069	0.00070067345
22	8071	0.069	0.000325402425
22	8072	0.069	0.00077078752
22	8073	0.069	0.00038312154
22	8074	0.069	0.000934640274
22	8075	0.069	0.000560654781
22	8076	0.069	0.000658817568
22	8077	0.069	0.0008600918
22	8078	0.069	0.000882880266
22	8079	0.069	0.000186669288
22	8080	0.069	0.000291391856
22	8081	0.069	0.0004856967
22	8082	0.069	0.000510655568
22	8083	0.069	0.0001113016
22	8084	0.069	0.00013843087
22	8180	0.07	0.000738385653
22	8181	0.07	0.00035144926
22	8182	0.07	0.000774028133
22	8183	0.07	0.00038729086
22	8184	0.07	5.53587e-007
22	8185	0.07	0.00079464706
22	8186	0.07	0.00042257527
22	8187	0.07	5.050348e-005
22	8188	0.07	0.000939308482
22	8189	0.07	0.000559854133
22	8190	0.07	0.000180399784
22	8191	0.07	0.0009501314
22	8192	0.07	0.000574860375
22	8193	0.07	0.00099545556
22	8194	0.07	0.00060778958
22	8195	0.07	0.000812683795
22	8196	0.07	0.000438698302
22	8197	0.07	0.000923966144
22	8198	0.07	0.0007369065
22	8199	0.07	0.000766206172
22	8200	0.07	0.00019958935
22	8201	0.07	0.0002201236
22	8202	0.07	6.4712809e-005
22	8203	0.07	0.000556540432
22	8204	0.07	0.0003625114
22	8205	0.07	0.000393981474
22	8206	0.07	0.00018911472
22	8207	0.07	2.1756776e-005
22	8298	0.071	0.000964512867
22	8299	0.071	0.000577576474
22	8300	0.071	0.000190640081
22	8301	0.071	0.000613816314
22	8302	0.071	0.000227079041
22	8303	0.071	0.00067843169
22	8304	0.071	0.0003063599
22	8305	0.071	0.000800945435
22	8306	0.071	0.000421491086
22	8307	0.071	4.2036737e-005
22	8308	0.071	0.000824318325
22	8309	0.071	0.0004490473
22	8310	0.071	0.00083245762
22	8311	0.071	0.00044479164
22	8312	0.071	0.000690727316
22	8313	0.071	0.000316741823
22	8314	0.071	0.000821689008
22	8315	0.071	0.0009881163
22	8316	0.071	0.000649532078
22	8317	0.071	7.3776275e-005
22	8318	0.071	5.712566e-005
22	8319	0.071	0.000454263296
22	8320	0.071	0.0006137212
22	8321	0.071	0.00027730738
22	8322	0.071	8.6837584e-005
22	8323	0.071	0.0002393261
22	8413	0.072	0.000803703688
22	8414	0.072	0.000416767295
22	8415	0.072	2.9830902e-005
22	8416	0.072	0.000840341768
22	8417	0.072	0.000453604495
22	8418	0.072	6.6867222e-005
22	8419	0.072	0.00093428811
22	8420	0.072	0.00056221632
22	8421	0.072	0.00019014453
22	8422	0.072	0.000662582388
22	8423	0.072	0.000283128039
22	8424	0.072	0.00069850525
22	8425	0.072	0.000323234225
22	8426	0.072	0.00066945968
22	8427	0.072	0.0002817937
22	8428	0.072	0.00094275633
22	8429	0.072	0.000568770837
22	8430	0.072	0.000719411872
22	8431	0.072	0.000864931
22	8432	0.072	0.000905082682
22	8433	0.072	0.000194785344
22	8434	0.072	0.00035198616
22	8435	0.072	0.0004905359
22	8436	0.072	0.000532857984
22	8437	0.072	0.0001161408
22	8438	0.072	0.000160633286
22	8532	0.073	0.000642894509
22	8533	0.073	0.000255958116
22	8534	0.073	0.000680129949
22	8535	0.073	0.000293392676
22	8536	0.073	0.00081807274
22	8537	0.073	0.00044600095
22	8538	0.073	7.392916e-005
22	8539	0.073	0.00090367369
22	8540	0.073	0.000524219341
22	8541	0.073	0.000144764992
22	8542	0.073	0.0009479632
22	8543	0.073	0.000572692175
22	8544	0.073	0.00089412772
22	8545	0.073	0.00050646174
22	8546	0.073	0.000820799851
22	8547	0.073	0.000446814358
22	8548	0.073	0.000984560448
22	8549	0.073	0.0007417457
22	8550	0.073	0.000788408588
22	8551	0.073	0.00019742115
22	8552	0.073	0.00011879576
22	8553	0.073	7.2828865e-005
22	8554	0.073	0.000617134736
22	8555	0.073	0.0003673506
22	8556	0.073	0.00041618389
22	8557	0.073	0.000249709024
22	8558	0.073	4.3959192e-005
22	8648	0.074	0.000869021723
22	8649	0.074	0.00048208533
22	8650	0.074	9.5148937e-005
22	8651	0.074	0.000906655403
22	8652	0.074	0.00051991813
22	8653	0.074	0.000133180857
22	8654	0.074	0.00070185737
22	8655	0.074	0.00032978558
22	8656	0.074	0.000765310643
22	8657	0.074	0.000385856294
22	8658	0.074	6.401945e-006
22	8659	0.074	0.000822150125
22	8660	0.074	0.0004468791
22	8661	0.074	0.00073112978
22	8662	0.074	0.0003434638
22	8663	0.074	0.000698843372
22	8664	0.074	0.000324857879
22	8665	0.074	0.000882283312
22	8666	0.074	0.0009929555
22	8667	0.074	0.000671734494
22	8668	0.074	7.1608075e-005
22	8669	0.074	0.0005148576
22	8670	0.074	0.0006185604
22	8671	0.074	0.000299509796
22	8672	0.074	0.000147431888
22	8673	0.074	0.0002441653
22	8765	0.075	0.000708212544
22	8766	0.075	0.000321276151
22	8767	0.075	0.000746443584
22	8768	0.075	0.000359706311
22	8769	0.075	0.00095771379
22	8770	0.075	0.000585642
22	8771	0.075	0.00021357021
22	8772	0.075	0.000626947596
22	8773	0.075	0.000247493247
22	8774	0.075	0.00069633705
22	8775	0.075	0.000321066025
22	8776	0.075	0.00095579782
22	8777	0.075	0.00056813184
22	8778	0.075	0.000950872386
22	8779	0.075	0.000576886893
22	8780	0.075	0.000780006176
22	8781	0.075	0.0008697702
22	8782	0.075	0.000927285098
22	8783	0.075	0.00018046586
22	8784	0.075	0.0002029014
22	8785	0.075	0.000412580464
22	8786	0.075	0.0004953751
22	8787	0.075	0.0005550604
22	8788	0.075	4.5154752e-005
22	8789	0.075	0.00012098
22	8790	0.075	0.000182835702
22	8885	0.076	0.000934339758
22	8886	0.076	0.000547403365
22	8887	0.076	0.000160466972
22	8888	0.076	0.000972969038
22	8889	0.076	0.000586231765
22	8890	0.076	0.000199494492
22	8891	0.076	0.00084149842
22	8892	0.076	0.00046942663
22	8893	0.076	9.735484e-005
22	8894	0.076	0.000868038898
22	8895	0.076	0.000488584549
22	8896	0.076	0.0001091302
22	8897	0.076	0.000945795
22	8898	0.076	0.000570523975
22	8899	0.076	0.00079279988
22	8900	0.076	0.0004051339
22	8901	0.076	0.000828915907
22	8902	0.076	0.000454930414
22	8903	0.076	0.00067772904
22	8904	0.076	0.0007465849
22	8905	0.076	0.000810611004
22	8906	0.076	0.00019525295
22	8907	0.076	1.746792e-005
22	8908	0.076	8.0944921e-005
22	8909	0.076	0.000310303328
22	8910	0.076	0.0003721898
22	8911	0.076	0.000438386306
22	8912	0.076	6.6161608e-005
22	8998	0.077	0.000773530579
22	8999	0.077	0.000386594186
22	9000	0.077	0.000812757219
22	9001	0.077	0.000426019946
22	9002	0.077	3.9282673e-005
22	9003	0.077	0.00072528305
22	9004	0.077	0.00035321126
22	9005	0.077	0.000729675851
22	9006	0.077	0.000350221502
22	9007	0.077	0.000819981925
22	9008	0.077	0.0004447109
22	9009	0.077	0.00062980194
22	9010	0.077	0.00024213596
22	9011	0.077	0.000706959428
22	9012	0.077	0.000332973935
22	9013	0.077	0.000942877616
22	9014	0.077	0.0009977947
22	9015	0.077	0.00069393691
22	9016	0.077	6.9439875e-005
22	9017	0.077	0.000575451904
22	9018	0.077	0.0006233996
22	9019	0.077	0.000321712212
22	9020	0.077	0.000208026192
22	9021	0.077	0.0002490045
22	9117	0.078	0.000999657793
22	9118	0.078	0.0006127214
22	9119	0.078	0.000225785007
22	9120	0.078	0.0006525454
22	9121	0.078	0.000265808127
22	9122	0.078	0.00098113947
22	9123	0.078	0.00060906768
22	9124	0.078	0.00023699589
22	9125	0.078	0.000970767153
22	9126	0.078	0.000591312804
22	9127	0.078	0.000211858455
22	9128	0.078	0.00069416885
22	9129	0.078	0.000318897825
22	9130	0.078	0.00085446998
22	9131	0.078	0.000466804
22	9132	0.078	0.000958988442
22	9133	0.078	0.000585002949
22	9134	0.078	0.00084060048
22	9135	0.078	0.0008746094
22	9136	0.078	0.000949487514
22	9137	0.078	7.913802e-005
22	9138	0.078	0.000211017456
22	9139	0.078	0.000473174768
22	9140	0.078	0.0005002143
22	9141	0.078	0.000577262816
22	9142	0.078	0.000105749056
22	9143	0.078	0.0001258192
22	9144	0.078	0.000205038118
22	9242	0.079	0.000838848614
22	9243	0.079	0.000451912221
22	9244	0.079	6.4975828e-005
22	9245	0.079	0.000879070854
22	9246	0.079	0.000492333581
22	9247	0.079	0.000105596308
22	9248	0.079	0.0008649241
22	9249	0.079	0.00049285231
22	9250	0.079	0.00012078052
22	9251	0.079	0.000832404106
22	9252	0.079	0.000452949757
22	9253	0.079	7.3495408e-005
22	9254	0.079	0.0009436268
22	9255	0.079	0.000568355775
22	9256	0.079	0.00069147204
22	9257	0.079	0.00030380606
22	9258	0.079	0.000837031963
22	9259	0.079	0.00046304647
22	9260	0.079	0.000738323344
22	9261	0.079	0.0007514241
22	9262	0.079	0.00083281342
22	9263	0.079	0.00019308475
22	9264	0.079	8.9060977e-005
22	9265	0.079	0.000370897632
22	9266	0.079	0.000377029
22	9267	0.079	0.000460588722
22	9268	0.079	3.47192e-006
22	9269	0.079	2.6339e-006
22	9270	0.079	8.8364024e-005
22	9353	0.08	0.000678039435
22	9354	0.08	0.000291103042
22	9355	0.08	0.000718859035
22	9356	0.08	0.000332121762
22	9357	0.08	0.00074870873
22	9358	0.08	0.00037663694
22	9359	0.08	4.56515e-006
22	9360	0.08	0.000694041059
22	9361	0.08	0.00031458671
22	9362	0.08	0.000817813725
22	9363	0.08	0.0004425427
22	9364	0.08	0.00091614008
22	9365	0.08	0.0005284741
22	9366	0.08	0.000715075484
22	9367	0.08	0.000341089991
22	9368	0.08	0.000636046208
22	9369	0.08	0.0006282388
22	9370	0.08	0.000716139326
22	9371	0.08	6.7271675e-005
22	9372	0.08	0.00014080812
22	9373	0.08	0.000268620496
22	9374	0.08	0.0002538437
22	9375	0.08	0.000343914628
22	9468	0.081	0.000904166649
22	9469	0.081	0.000517230256
22	9470	0.081	0.000130293863
22	9471	0.081	0.000945384489
22	9472	0.081	0.000558647216
22	9473	0.081	0.000171909943
22	9474	0.081	0.00063249336
22	9475	0.081	0.00026042157
22	9476	0.081	0.000935132361
22	9477	0.081	0.000555678012
22	9478	0.081	0.000176223663
22	9479	0.081	0.00069200065
22	9480	0.081	0.000316729625
22	9481	0.081	0.00075314214
22	9482	0.081	0.00036547616
22	9483	0.081	0.000967104498
22	9484	0.081	0.000593119005
22	9485	0.081	0.000901194784
22	9486	0.081	0.0008794486
22	9487	0.081	0.00097168993
22	9488	0.081	0.000219133512
22	9489	0.081	0.000533769072
22	9490	0.081	0.0005050535
22	9491	0.081	0.000599465232
22	9492	0.081	0.00016634336
22	9493	0.081	0.0001306584
22	9494	0.081	0.000227240534
22	9593	0.082	0.00074335747
22	9594	0.082	0.000356421077
22	9595	0.082	0.00078517267
22	9596	0.082	0.000398435397
22	9597	0.082	1.1698124e-005
22	9598	0.082	0.00088834978
22	9599	0.082	0.00051627799
22	9600	0.082	0.0001442062
22	9601	0.082	0.000796769314
22	9602	0.082	0.000417314965
22	9603	0.082	3.7860616e-005
22	9604	0.082	0.0009414586
22	9605	0.082	0.000566187575
22	9606	0.082	0.00097781018
22	9607	0.082	0.0005901442
22	9608	0.082	0.000845148019
22	9609	0.082	0.000471162526
22	9610	0.082	0.000798917648
22	9611	0.082	0.0007562633
22	9612	0.082	0.000855015836
22	9613	0.082	0.00019091655
22	9614	0.082	0.00020247822
22	9615	0.082	9.7177033e-005
22	9616	0.082	0.000431491936
22	9617	0.082	0.0003818682
22	9618	0.082	0.000482791138
22	9619	0.082	6.4066224e-005
22	9620	0.082	7.4731e-006
22	9621	0.082	0.00011056644
22	9706	0.083	0.000969484684
22	9707	0.083	0.000582548291
22	9708	0.083	0.000195611898
22	9709	0.083	0.000624960851
22	9710	0.083	0.000238223578
22	9711	0.083	0.00077213441
22	9712	0.083	0.00040006262
22	9713	0.083	2.799083e-005
22	9714	0.083	0.000658406267
22	9715	0.083	0.000278951918
22	9716	0.083	0.000815645525
22	9717	0.083	0.0004403745
22	9718	0.083	0.00081481224
22	9719	0.083	0.00042714626
22	9720	0.083	0.00072319154
22	9721	0.083	0.000349206047
22	9722	0.083	0.000696640512
22	9723	0.083	0.000633078
22	9724	0.083	0.000738341742
22	9725	0.083	6.5103475e-005
22	9726	0.083	3.948028e-005
22	9727	0.083	0.0003292148
22	9728	0.083	0.0002586829
22	9729	0.083	0.000366117044
22	9822	0.084	0.000808675505
22	9823	0.084	0.000421739112
22	9824	0.084	3.4802719e-005
22	9825	0.084	0.000851486305
22	9826	0.084	0.000464749032
22	9827	0.084	7.8011759e-005
22	9828	0.084	0.00065591904
22	9829	0.084	0.00028384725
22	9830	0.084	0.000899497569
22	9831	0.084	0.00052004322
22	9832	0.084	0.000140588871
22	9833	0.084	0.00068983245
22	9834	0.084	0.000314561425
22	9835	0.084	0.0006518143
22	9836	0.084	0.00026414832
22	9837	0.084	0.000975220554
22	9838	0.084	0.000601235061
22	9839	0.084	0.000961789088
22	9840	0.084	0.0008842878
22	9841	0.084	0.000993892346
22	9842	0.084	0.000227249568
22	9843	0.084	0.000594363376
22	9844	0.084	0.0005098927
22	9845	0.084	0.000621667648
22	9846	0.084	0.000226937664
22	9847	0.084	0.0001354976
22	9848	0.084	0.00024944295
22	9945	0.085	0.000647866326
22	9946	0.085	0.000260929933
22	9947	0.085	0.000691274486
22	9948	0.085	0.000304537213
22	9949	0.085	0.00091177546
22	9950	0.085	0.00053970367
22	9951	0.085	0.00016763188
22	9952	0.085	0.000761134522
22	9953	0.085	0.000381680173
22	9954	0.085	2.225824e-006
22	9955	0.085	0.0009392904
22	9956	0.085	0.000564019375
22	9957	0.085	0.00087648234
22	9958	0.085	0.00048881636
22	9959	0.085	0.000853264075
22	9960	0.085	0.000479278582
22	9961	0.085	0.000859511952
22	9962	0.085	0.0007611025
22	9963	0.085	0.000877218252
22	9964	0.085	0.00018874835
22	9965	0.085	0.00010115038
22	9966	0.085	0.000105293089
22	9967	0.085	0.00049208624
22	9968	0.085	0.0003867074
22	9969	0.085	0.000504993554
22	9970	0.085	0.000124660528
22	9971	0.085	1.23123e-005
22	9972	0.085	0.000132768856

