version 2
run _10UsersSetupWRR-0-20201129-19:30:45-15944
attr configname _10UsersSetupWRR
attr datetime 20201129-19:30:45
attr experiment _10UsersSetupWRR
attr inifile omnetpp.ini
attr iterationvars ""
attr iterationvarsf ""
attr measurement ""
attr network Network
attr processid 15944
attr repetition 0
attr replication #0
attr resultdir results
attr runnumber 0
attr seedset 0
param **.algorithm "\"wrr\""
param **.usersCount 10
param **.channelsCount 25
param **.networkLoad 1.5
param **.scheduler.generateInterval 1ms
param **.gen.generateInterval "triang(0.9ms, 1.0ms, 1.1ms)"
param **.user[0].radioLinkQuality 1
param **.user[1].radioLinkQuality 2
param **.user[2].radioLinkQuality 3
param **.user[3].radioLinkQuality 4
param **.user[4].radioLinkQuality 5
param **.user[5].radioLinkQuality 6
param **.user[6].radioLinkQuality 7
param **.user[7].radioLinkQuality 8
param **.user[8].radioLinkQuality 9
param **.user[9].radioLinkQuality 10
param **.user[0].gen.startingMessage 0
param **.user[1].gen.startingMessage 100
param **.user[2].gen.startingMessage 200
param **.user[3].gen.startingMessage 300
param **.user[4].gen.startingMessage 400
param **.user[5].gen.startingMessage 500
param **.user[6].gen.startingMessage 600
param **.user[7].gen.startingMessage 700
param **.user[8].gen.startingMessage 800
param **.user[9].gen.startingMessage 900

vector 0 Network.user[0].queue "Queue before scheduler's run." ETV
vector 1 Network.user[1].queue "Queue before scheduler's run." ETV
vector 2 Network.user[2].queue "Queue before scheduler's run." ETV
vector 3 Network.user[3].queue "Queue before scheduler's run." ETV
vector 4 Network.user[4].queue "Queue before scheduler's run." ETV
vector 5 Network.user[5].queue "Queue before scheduler's run." ETV
vector 6 Network.user[6].queue "Queue before scheduler's run." ETV
vector 7 Network.user[7].queue "Queue before scheduler's run." ETV
vector 8 Network.user[8].queue "Queue before scheduler's run." ETV
vector 9 Network.user[9].queue "Queue before scheduler's run." ETV
vector 10 Network.scheduler "Scheduler free channels" ETV
vector 11 Network.scheduler "Total users' queues lengths" ETV
vector 12 Network.user[0].queue "Queue after scheduler's run." ETV
vector 13 Network.user[1].queue "Queue after scheduler's run." ETV
vector 14 Network.user[2].queue "Queue after scheduler's run." ETV
vector 15 Network.user[3].queue "Queue after scheduler's run." ETV
vector 16 Network.user[4].queue "Queue after scheduler's run." ETV
vector 17 Network.user[5].queue "Queue after scheduler's run." ETV
vector 18 Network.user[6].queue "Queue after scheduler's run." ETV
vector 19 Network.user[7].queue "Queue after scheduler's run." ETV
vector 20 Network.user[8].queue "Queue after scheduler's run." ETV
vector 21 Network.user[9].queue "Queue after scheduler's run." ETV
vector 22 Network.sink lifetime:vector ETV
attr interpolationmode none
attr title "lifetime of arrived jobs, vector"
attr unit s
0	62	0.001	3
0	198	0.002	6
0	324	0.003	9
0	446	0.004	11
0	568	0.005	15
0	699	0.006	18
0	823	0.007	22
0	946	0.008	24
0	1074	0.009	28
0	1199	0.01	31
0	1324	0.011	34
0	1447	0.012	37
0	1574	0.013	40
0	1697	0.014	44
0	1817	0.015	46
0	1948	0.016	50
0	2076	0.017	53
0	2196	0.018	57
0	2322	0.019	59
0	2446	0.02	63
0	2570	0.021	66
0	2696	0.022	70
0	2820	0.023	72
0	2944	0.024	76
0	3069	0.025	79
0	3199	0.026	83
0	3318	0.027	85
0	3442	0.028	89
0	3573	0.029	92
0	3694	0.03	94
0	3823	0.031	98
0	3942	0.032	101
0	4071	0.033	105
0	4194	0.034	107
0	4317	0.035	111
0	4444	0.036	114
0	4567	0.037	118
0	4693	0.038	120
0	4816	0.039	124
0	4946	0.04	127
0	5068	0.041	130
0	5189	0.042	133
0	5319	0.043	137
0	5446	0.044	140
0	5566	0.045	143
0	5693	0.046	146
0	5818	0.047	149
0	5945	0.048	153
0	6064	0.049	155
0	6195	0.05	159
0	6318	0.051	162
0	6443	0.052	166
0	6565	0.053	168
0	6690	0.054	172
0	6820	0.055	175
0	6940	0.056	178
0	7064	0.057	181
0	7192	0.058	185
0	7316	0.059	188
0	7436	0.06	191
0	7564	0.061	194
0	7690	0.062	198
0	7816	0.063	201
0	7934	0.064	204
0	8063	0.065	207
0	8189	0.066	211
0	8314	0.067	213
0	8438	0.068	217
0	8563	0.069	220
0	8690	0.07	223
0	8811	0.071	226
0	8938	0.072	229
0	9065	0.073	233
0	9186	0.074	236
0	9311	0.075	239
0	9436	0.076	242
0	9559	0.077	246
0	9686	0.078	249
0	9811	0.079	252
0	9936	0.08	255
1	63	0.001	3
1	199	0.002	5
1	325	0.003	7
1	447	0.004	8
1	569	0.005	12
1	700	0.006	14
1	824	0.007	17
1	947	0.008	19
1	1075	0.009	23
1	1200	0.01	25
1	1325	0.011	27
1	1448	0.012	31
1	1575	0.013	34
1	1698	0.014	37
1	1818	0.015	39
1	1949	0.016	43
1	2077	0.017	45
1	2197	0.018	48
1	2323	0.019	50
1	2447	0.02	54
1	2571	0.021	55
1	2697	0.022	59
1	2821	0.023	61
1	2945	0.024	65
1	3070	0.025	66
1	3200	0.026	70
1	3319	0.027	72
1	3443	0.028	75
1	3574	0.029	77
1	3695	0.03	80
1	3824	0.031	84
1	3943	0.032	85
1	4072	0.033	89
1	4195	0.034	91
1	4318	0.035	94
1	4445	0.036	96
1	4568	0.037	100
1	4694	0.038	102
1	4817	0.039	105
1	4947	0.04	107
1	5069	0.041	111
1	5190	0.042	112
1	5320	0.043	116
1	5447	0.044	118
1	5567	0.045	122
1	5694	0.046	123
1	5819	0.047	126
1	5946	0.048	130
1	6065	0.049	131
1	6196	0.05	135
1	6319	0.051	138
1	6444	0.052	142
1	6566	0.053	143
1	6691	0.054	147
1	6821	0.055	149
1	6941	0.056	152
1	7065	0.057	154
1	7193	0.058	158
1	7317	0.059	160
1	7437	0.06	163
1	7565	0.061	165
1	7691	0.062	169
1	7817	0.063	170
1	7935	0.064	174
1	8064	0.065	176
1	8190	0.066	180
1	8315	0.067	181
1	8439	0.068	185
1	8564	0.069	187
1	8691	0.07	189
1	8812	0.071	193
1	8939	0.072	195
1	9066	0.073	199
1	9187	0.074	201
1	9312	0.075	205
1	9437	0.076	207
1	9560	0.077	210
1	9687	0.078	212
1	9812	0.079	216
1	9937	0.08	218
2	64	0.001	3
2	200	0.002	4
2	326	0.003	4
2	448	0.004	5
2	570	0.005	9
2	701	0.006	9
2	825	0.007	13
2	948	0.008	14
2	1076	0.009	17
2	1201	0.01	18
2	1326	0.011	22
2	1449	0.012	22
2	1576	0.013	26
2	1699	0.014	27
2	1819	0.015	29
2	1950	0.016	33
2	2078	0.017	34
2	2198	0.018	37
2	2324	0.019	38
2	2448	0.02	42
2	2572	0.021	42
2	2698	0.022	46
2	2822	0.023	47
2	2946	0.024	50
2	3071	0.025	51
2	3201	0.026	55
2	3320	0.027	55
2	3444	0.028	59
2	3575	0.029	60
2	3696	0.03	63
2	3825	0.031	64
2	3944	0.032	68
2	4073	0.033	68
2	4196	0.034	72
2	4319	0.035	73
2	4446	0.036	76
2	4569	0.037	77
2	4695	0.038	80
2	4818	0.039	83
2	4948	0.04	84
2	5070	0.041	88
2	5191	0.042	88
2	5321	0.043	92
2	5448	0.044	93
2	5568	0.045	96
2	5695	0.046	97
2	5820	0.047	101
2	5947	0.048	101
2	6066	0.049	105
2	6197	0.05	106
2	6320	0.051	109
2	6445	0.052	110
2	6567	0.053	112
2	6692	0.054	116
2	6822	0.055	117
2	6942	0.056	120
2	7066	0.057	121
2	7194	0.058	125
2	7318	0.059	125
2	7438	0.06	129
2	7566	0.061	130
2	7692	0.062	133
2	7818	0.063	134
2	7936	0.064	138
2	8065	0.065	138
2	8191	0.066	142
2	8316	0.067	143
2	8440	0.068	146
2	8565	0.069	147
2	8692	0.07	151
2	8813	0.071	151
2	8940	0.072	155
2	9067	0.073	156
2	9188	0.074	159
2	9313	0.075	160
2	9438	0.076	164
2	9561	0.077	164
2	9688	0.078	168
2	9813	0.079	169
2	9938	0.08	172
3	65	0.001	3
3	201	0.002	4
3	327	0.003	3
3	449	0.004	6
3	571	0.005	9
3	702	0.006	9
3	826	0.007	13
3	949	0.008	12
3	1077	0.009	16
3	1202	0.01	15
3	1327	0.011	19
3	1450	0.012	19
3	1577	0.013	22
3	1700	0.014	22
3	1820	0.015	25
3	1951	0.016	25
3	2079	0.017	26
3	2199	0.018	29
3	2325	0.019	29
3	2449	0.02	32
3	2573	0.021	32
3	2699	0.022	36
3	2823	0.023	35
3	2947	0.024	39
3	3072	0.025	38
3	3202	0.026	42
3	3321	0.027	41
3	3445	0.028	45
3	3576	0.029	45
3	3697	0.03	48
3	3826	0.031	48
3	3945	0.032	51
3	4074	0.033	51
3	4197	0.034	55
3	4320	0.035	54
3	4447	0.036	58
3	4570	0.037	57
3	4696	0.038	61
3	4819	0.039	61
3	4949	0.04	61
3	5071	0.041	65
3	5192	0.042	64
3	5322	0.043	68
3	5449	0.044	68
3	5569	0.045	71
3	5696	0.046	71
3	5821	0.047	74
3	5948	0.048	74
3	6067	0.049	77
3	6198	0.05	77
3	6321	0.051	81
3	6446	0.052	80
3	6568	0.053	84
3	6693	0.054	83
3	6823	0.055	83
3	6943	0.056	87
3	7067	0.057	86
3	7195	0.058	90
3	7319	0.059	89
3	7439	0.06	93
3	7567	0.061	93
3	7693	0.062	96
3	7819	0.063	96
3	7937	0.064	99
3	8066	0.065	99
3	8192	0.066	103
3	8317	0.067	102
3	8441	0.068	106
3	8566	0.069	105
3	8693	0.07	109
3	8814	0.071	108
3	8941	0.072	112
3	9068	0.073	112
3	9189	0.074	115
3	9314	0.075	115
3	9439	0.076	118
3	9562	0.077	118
3	9689	0.078	122
3	9814	0.079	121
3	9939	0.08	125
4	66	0.001	3
4	202	0.002	4
4	328	0.003	4
4	450	0.004	7
4	572	0.005	6
4	703	0.006	9
4	827	0.007	12
4	950	0.008	11
4	1078	0.009	15
4	1203	0.01	14
4	1328	0.011	17
4	1451	0.012	16
4	1578	0.013	20
4	1701	0.014	18
4	1821	0.015	22
4	1952	0.016	21
4	2080	0.017	25
4	2200	0.018	23
4	2326	0.019	27
4	2450	0.02	26
4	2574	0.021	29
4	2700	0.022	28
4	2824	0.023	32
4	2948	0.024	31
4	3073	0.025	33
4	3203	0.026	37
4	3322	0.027	36
4	3446	0.028	39
4	3577	0.029	38
4	3698	0.03	42
4	3827	0.031	41
4	3946	0.032	44
4	4075	0.033	43
4	4198	0.034	47
4	4321	0.035	45
4	4448	0.036	49
4	4571	0.037	48
4	4697	0.038	51
4	4820	0.039	50
4	4950	0.04	54
4	5072	0.041	53
4	5193	0.042	55
4	5323	0.043	59
4	5450	0.044	58
4	5570	0.045	61
4	5697	0.046	60
4	5822	0.047	64
4	5949	0.048	63
4	6068	0.049	66
4	6199	0.05	65
4	6322	0.051	69
4	6447	0.052	67
4	6569	0.053	71
4	6694	0.054	70
4	6824	0.055	74
4	6944	0.056	72
4	7068	0.057	76
4	7196	0.058	75
4	7320	0.059	78
4	7440	0.06	77
4	7568	0.061	81
4	7694	0.062	80
4	7820	0.063	83
4	7938	0.064	82
4	8067	0.065	85
4	8193	0.066	88
4	8318	0.067	87
4	8442	0.068	91
4	8567	0.069	89
4	8694	0.07	93
4	8815	0.071	92
4	8942	0.072	96
4	9069	0.073	94
4	9190	0.074	98
4	9315	0.075	97
4	9440	0.076	100
4	9563	0.077	99
4	9690	0.078	103
4	9815	0.079	102
4	9940	0.08	105
5	67	0.001	3
5	203	0.002	4
5	329	0.003	3
5	451	0.004	7
5	573	0.005	4
5	704	0.006	8
5	828	0.007	6
5	951	0.008	6
5	1079	0.009	10
5	1204	0.01	7
5	1329	0.011	11
5	1452	0.012	8
5	1579	0.013	12
5	1702	0.014	10
5	1822	0.015	13
5	1953	0.016	11
5	2081	0.017	14
5	2201	0.018	12
5	2327	0.019	16
5	2451	0.02	13
5	2575	0.021	17
5	2701	0.022	14
5	2825	0.023	18
5	2949	0.024	15
5	3074	0.025	19
5	3204	0.026	17
5	3323	0.027	18
5	3447	0.028	22
5	3578	0.029	19
5	3699	0.03	23
5	3828	0.031	21
5	3947	0.032	24
5	4076	0.033	22
5	4199	0.034	25
5	4322	0.035	23
5	4449	0.036	26
5	4572	0.037	24
5	4698	0.038	28
5	4821	0.039	25
5	4951	0.04	29
5	5073	0.041	26
5	5194	0.042	30
5	5324	0.043	28
5	5451	0.044	29
5	5571	0.045	33
5	5698	0.046	30
5	5823	0.047	34
5	5950	0.048	31
5	6069	0.049	35
5	6200	0.05	33
5	6323	0.051	36
5	6448	0.052	34
5	6570	0.053	37
5	6695	0.054	35
5	6825	0.055	39
5	6945	0.056	36
5	7069	0.057	40
5	7197	0.058	37
5	7321	0.059	41
5	7441	0.06	38
5	7569	0.061	42
5	7695	0.062	40
5	7821	0.063	43
5	7939	0.064	41
5	8068	0.065	44
5	8194	0.066	42
5	8319	0.067	44
5	8443	0.068	47
5	8568	0.069	45
5	8695	0.07	48
5	8816	0.071	46
5	8943	0.072	49
5	9070	0.073	47
5	9191	0.074	51
5	9316	0.075	48
5	9441	0.076	52
5	9564	0.077	49
5	9691	0.078	53
5	9816	0.079	51
5	9941	0.08	54
6	68	0.001	3
6	204	0.002	4
6	330	0.003	4
6	452	0.004	7
6	574	0.005	4
6	705	0.006	8
6	829	0.007	5
6	952	0.008	8
6	1080	0.009	5
6	1205	0.01	5
6	1330	0.011	9
6	1453	0.012	5
6	1580	0.013	9
6	1703	0.014	6
6	1823	0.015	9
6	1954	0.016	6
6	2082	0.017	10
6	2202	0.018	7
6	2328	0.019	10
6	2452	0.02	7
6	2576	0.021	11
6	2702	0.022	8
6	2826	0.023	11
6	2950	0.024	8
6	3075	0.025	12
6	3205	0.026	9
6	3324	0.027	12
6	3448	0.028	9
6	3579	0.029	9
6	3700	0.03	12
6	3829	0.031	9
6	3948	0.032	13
6	4077	0.033	10
6	4200	0.034	13
6	4323	0.035	10
6	4450	0.036	14
6	4573	0.037	11
6	4699	0.038	14
6	4822	0.039	11
6	4952	0.04	15
6	5074	0.041	12
6	5195	0.042	15
6	5325	0.043	12
6	5452	0.044	16
6	5572	0.045	12
6	5699	0.046	12
6	5824	0.047	16
6	5951	0.048	13
6	6070	0.049	16
6	6201	0.05	13
6	6324	0.051	17
6	6449	0.052	14
6	6571	0.053	17
6	6696	0.054	14
6	6826	0.055	18
6	6946	0.056	15
6	7070	0.057	18
6	7198	0.058	15
6	7322	0.059	19
6	7442	0.06	15
6	7570	0.061	19
6	7696	0.062	16
6	7822	0.063	20
6	7940	0.064	16
6	8069	0.065	20
6	8195	0.066	17
6	8320	0.067	21
6	8444	0.068	17
6	8569	0.069	17
6	8696	0.07	21
6	8817	0.071	18
6	8944	0.072	21
6	9071	0.073	18
6	9192	0.074	22
6	9317	0.075	18
6	9442	0.076	22
6	9565	0.077	19
6	9692	0.078	23
6	9817	0.079	19
6	9942	0.08	23
7	69	0.001	3
7	205	0.002	4
7	331	0.003	4
7	453	0.004	8
7	575	0.005	4
7	706	0.006	8
7	830	0.007	4
7	953	0.008	7
7	1081	0.009	4
7	1206	0.01	7
7	1331	0.011	4
7	1454	0.012	8
7	1581	0.013	3
7	1704	0.014	7
7	1824	0.015	3
7	1955	0.016	4
7	2083	0.017	8
7	2203	0.018	4
7	2329	0.019	8
7	2453	0.02	4
7	2577	0.021	8
7	2703	0.022	4
7	2827	0.023	8
7	2951	0.024	5
7	3076	0.025	8
7	3206	0.026	4
7	3325	0.027	7
7	3449	0.028	4
7	3580	0.029	8
7	3701	0.03	3
7	3830	0.031	7
7	3949	0.032	3
7	4078	0.033	7
7	4201	0.034	4
7	4324	0.035	7
7	4451	0.036	4
7	4574	0.037	7
7	4700	0.038	4
7	4823	0.039	4
7	4953	0.04	8
7	5075	0.041	5
7	5196	0.042	8
7	5326	0.043	4
7	5453	0.044	7
7	5573	0.045	4
7	5700	0.046	8
7	5825	0.047	3
7	5952	0.048	7
7	6071	0.049	3
7	6202	0.05	7
7	6325	0.051	4
7	6450	0.052	7
7	6572	0.053	4
7	6697	0.054	4
7	6827	0.055	8
7	6947	0.056	5
7	7071	0.057	8
7	7199	0.058	5
7	7323	0.059	8
7	7443	0.06	5
7	7571	0.061	8
7	7697	0.062	5
7	7823	0.063	9
7	7941	0.064	5
7	8070	0.065	9
7	8196	0.066	4
7	8321	0.067	8
7	8445	0.068	4
7	8570	0.069	7
7	8697	0.07	4
7	8818	0.071	7
7	8945	0.072	4
7	9072	0.073	8
7	9193	0.074	3
7	9318	0.075	7
7	9443	0.076	3
7	9566	0.077	7
7	9693	0.078	3
7	9818	0.079	7
7	9943	0.08	4
8	70	0.001	3
8	206	0.002	4
8	332	0.003	8
8	454	0.004	4
8	576	0.005	7
8	707	0.006	4
8	831	0.007	4
8	954	0.008	8
8	1082	0.009	4
8	1207	0.01	7
8	1332	0.011	4
8	1455	0.012	8
8	1582	0.013	4
8	1705	0.014	7
8	1825	0.015	4
8	1956	0.016	8
8	2084	0.017	4
8	2204	0.018	8
8	2330	0.019	3
8	2454	0.02	7
8	2578	0.021	4
8	2704	0.022	8
8	2828	0.023	3
8	2952	0.024	7
8	3077	0.025	4
8	3207	0.026	4
8	3326	0.027	8
8	3450	0.028	3
8	3581	0.029	7
8	3702	0.03	4
8	3831	0.031	8
8	3950	0.032	3
8	4079	0.033	7
8	4202	0.034	4
8	4325	0.035	8
8	4452	0.036	4
8	4575	0.037	7
8	4701	0.038	4
8	4824	0.039	8
8	4954	0.04	4
8	5076	0.041	7
8	5197	0.042	4
8	5327	0.043	4
8	5454	0.044	8
8	5574	0.045	4
8	5701	0.046	7
8	5826	0.047	4
8	5953	0.048	8
8	6072	0.049	4
8	6203	0.05	8
8	6326	0.051	3
8	6451	0.052	7
8	6573	0.053	4
8	6698	0.054	8
8	6828	0.055	3
8	6948	0.056	7
8	7072	0.057	4
8	7200	0.058	8
8	7324	0.059	4
8	7444	0.06	7
8	7572	0.061	4
8	7698	0.062	8
8	7824	0.063	4
8	7942	0.064	7
8	8071	0.065	4
8	8197	0.066	4
8	8322	0.067	8
8	8446	0.068	4
8	8571	0.069	7
8	8698	0.07	4
8	8819	0.071	8
8	8946	0.072	4
8	9073	0.073	7
8	9194	0.074	4
8	9319	0.075	8
8	9444	0.076	4
8	9567	0.077	8
8	9694	0.078	3
8	9819	0.079	7
8	9944	0.08	4
9	71	0.001	3
9	207	0.002	6
9	333	0.003	10
9	455	0.004	3
9	577	0.005	7
9	708	0.006	4
9	832	0.007	7
9	955	0.008	4
9	1083	0.009	5
9	1208	0.01	9
9	1333	0.011	3
9	1456	0.012	7
9	1583	0.013	4
9	1706	0.014	7
9	1826	0.015	4
9	1957	0.016	8
9	2085	0.017	3
9	2205	0.018	7
9	2331	0.019	4
9	2455	0.02	8
9	2579	0.021	3
9	2705	0.022	7
9	2829	0.023	4
9	2953	0.024	7
9	3078	0.025	4
9	3208	0.026	8
9	3327	0.027	3
9	3451	0.028	4
9	3582	0.029	8
9	3703	0.03	4
9	3832	0.031	7
9	3951	0.032	4
9	4080	0.033	8
9	4203	0.034	3
9	4326	0.035	7
9	4453	0.036	4
9	4576	0.037	7
9	4702	0.038	4
9	4825	0.039	8
9	4955	0.04	4
9	5077	0.041	7
9	5198	0.042	4
9	5328	0.043	8
9	5455	0.044	3
9	5575	0.045	4
9	5702	0.046	8
9	5827	0.047	3
9	5954	0.048	7
9	6073	0.049	4
9	6204	0.05	8
9	6327	0.051	3
9	6452	0.052	7
9	6574	0.053	4
9	6699	0.054	7
9	6829	0.055	4
9	6949	0.056	8
9	7073	0.057	3
9	7201	0.058	7
9	7325	0.059	4
9	7445	0.06	8
9	7573	0.061	3
9	7699	0.062	7
9	7825	0.063	4
9	7943	0.064	7
9	8072	0.065	4
9	8198	0.066	8
9	8323	0.067	3
9	8447	0.068	5
9	8572	0.069	9
9	8699	0.07	4
9	8820	0.071	7
9	8947	0.072	4
9	9074	0.073	8
9	9195	0.074	3
9	9320	0.075	7
9	9445	0.076	4
9	9568	0.077	7
9	9695	0.078	4
9	9820	0.079	8
9	9945	0.08	4
10	81	0.001	0
10	217	0.002	0
10	343	0.003	0
10	465	0.004	0
10	587	0.005	0
10	718	0.006	0
10	842	0.007	0
10	965	0.008	0
10	1093	0.009	0
10	1218	0.01	0
10	1343	0.011	0
10	1466	0.012	0
10	1593	0.013	0
10	1716	0.014	0
10	1836	0.015	0
10	1967	0.016	0
10	2095	0.017	0
10	2215	0.018	0
10	2341	0.019	0
10	2465	0.02	0
10	2589	0.021	0
10	2715	0.022	0
10	2839	0.023	0
10	2963	0.024	0
10	3088	0.025	0
10	3218	0.026	0
10	3337	0.027	0
10	3461	0.028	0
10	3592	0.029	0
10	3713	0.03	0
10	3842	0.031	0
10	3961	0.032	0
10	4090	0.033	0
10	4213	0.034	0
10	4336	0.035	0
10	4463	0.036	0
10	4586	0.037	0
10	4712	0.038	0
10	4835	0.039	0
10	4965	0.04	0
10	5087	0.041	0
10	5208	0.042	0
10	5338	0.043	0
10	5465	0.044	0
10	5585	0.045	0
10	5712	0.046	0
10	5837	0.047	0
10	5964	0.048	0
10	6083	0.049	0
10	6214	0.05	0
10	6337	0.051	0
10	6462	0.052	0
10	6584	0.053	0
10	6709	0.054	0
10	6839	0.055	0
10	6959	0.056	0
10	7083	0.057	0
10	7211	0.058	0
10	7335	0.059	0
10	7455	0.06	0
10	7583	0.061	0
10	7709	0.062	0
10	7835	0.063	0
10	7953	0.064	0
10	8082	0.065	0
10	8208	0.066	0
10	8333	0.067	0
10	8457	0.068	0
10	8582	0.069	0
10	8709	0.07	0
10	8830	0.071	0
10	8957	0.072	0
10	9084	0.073	0
10	9205	0.074	0
10	9330	0.075	0
10	9455	0.076	0
10	9578	0.077	0
10	9705	0.078	0
10	9830	0.079	0
10	9955	0.08	0
11	81	0.001	5
11	217	0.002	20
11	343	0.003	31
11	465	0.004	41
11	587	0.005	52
11	718	0.006	66
11	842	0.007	78
11	965	0.008	88
11	1093	0.009	102
11	1218	0.01	113
11	1343	0.011	125
11	1466	0.012	136
11	1593	0.013	149
11	1716	0.014	160
11	1836	0.015	169
11	1967	0.016	184
11	2095	0.017	197
11	2215	0.018	207
11	2341	0.019	219
11	2465	0.02	231
11	2589	0.021	242
11	2715	0.022	255
11	2839	0.023	266
11	2963	0.024	278
11	3088	0.025	289
11	3218	0.026	304
11	3337	0.027	312
11	3461	0.028	324
11	3592	0.029	338
11	3713	0.03	348
11	3842	0.031	362
11	3961	0.032	371
11	4090	0.033	385
11	4213	0.034	396
11	4336	0.035	407
11	4463	0.036	420
11	4586	0.037	431
11	4712	0.038	443
11	4835	0.039	454
11	4965	0.04	468
11	5087	0.041	479
11	5208	0.042	488
11	5338	0.043	503
11	5465	0.044	515
11	5585	0.045	525
11	5712	0.046	537
11	5837	0.047	549
11	5964	0.048	562
11	6083	0.049	571
11	6214	0.05	586
11	6337	0.051	597
11	6462	0.052	609
11	6584	0.053	619
11	6709	0.054	631
11	6839	0.055	645
11	6959	0.056	655
11	7083	0.057	666
11	7211	0.058	680
11	7335	0.059	691
11	7455	0.06	701
11	7583	0.061	714
11	7709	0.062	727
11	7835	0.063	739
11	7953	0.064	748
11	8082	0.065	761
11	8208	0.066	774
11	8333	0.067	785
11	8457	0.068	797
11	8582	0.069	808
11	8709	0.07	821
11	8830	0.071	831
11	8957	0.072	844
11	9084	0.073	857
11	9205	0.074	867
11	9330	0.075	879
11	9455	0.076	891
11	9578	0.077	902
11	9705	0.078	915
11	9830	0.079	927
11	9955	0.08	939
12	82	0.001	2
12	218	0.002	5
12	346	0.003	8
12	590	0.005	14
12	844	0.007	21
12	1094	0.009	27
12	1222	0.01	30
12	1470	0.012	36
12	1720	0.014	43
12	1970	0.016	49
12	2218	0.018	56
12	2468	0.02	62
12	2718	0.022	69
12	2966	0.024	75
12	3220	0.026	82
12	3462	0.028	88
12	3596	0.029	91
12	3846	0.031	97
12	4094	0.033	104
12	4340	0.035	110
12	4590	0.037	117
12	4838	0.039	123
12	5090	0.041	129
12	5340	0.043	136
12	5586	0.045	142
12	5716	0.046	145
12	5968	0.048	152
12	6218	0.05	158
12	6466	0.052	165
12	6712	0.054	171
12	6962	0.056	177
12	7214	0.058	184
12	7458	0.06	190
12	7712	0.062	197
12	7956	0.064	203
12	8210	0.066	210
12	8458	0.068	216
12	8586	0.069	219
12	8834	0.071	225
12	9088	0.073	232
12	9334	0.075	238
12	9582	0.077	245
12	9834	0.079	251
13	83	0.001	1
13	219	0.002	3
13	347	0.003	5
13	591	0.005	10
13	845	0.007	15
13	1095	0.009	21
13	1223	0.01	24
13	1471	0.012	30
13	1721	0.014	35
13	1971	0.016	41
13	2219	0.018	46
13	2469	0.02	52
13	2719	0.022	57
13	2967	0.024	63
13	3221	0.026	68
13	3463	0.028	73
13	3597	0.029	76
13	3847	0.031	82
13	4095	0.033	87
13	4341	0.035	92
13	4591	0.037	98
13	4839	0.039	103
13	5091	0.041	109
13	5341	0.043	114
13	5587	0.045	120
13	5717	0.046	122
13	5969	0.048	128
13	6219	0.05	134
13	6467	0.052	140
13	6713	0.054	145
13	6963	0.056	150
13	7215	0.058	156
13	7459	0.06	161
13	7713	0.062	167
13	7957	0.064	172
13	8211	0.066	178
13	8459	0.068	183
13	8587	0.069	186
13	8835	0.071	191
13	9089	0.073	198
13	9335	0.075	203
13	9583	0.077	208
13	9835	0.079	214
14	84	0.001	0
14	220	0.002	1
14	348	0.003	1
14	592	0.005	6
14	846	0.007	10
14	1096	0.009	14
14	1344	0.011	19
14	1594	0.013	23
14	1722	0.014	26
14	1972	0.016	30
14	2220	0.018	34
14	2470	0.02	39
14	2720	0.022	43
14	2968	0.024	47
14	3222	0.026	52
14	3464	0.028	56
14	3714	0.03	60
14	3962	0.032	65
14	4214	0.034	69
14	4464	0.036	73
14	4592	0.037	76
14	4840	0.039	80
14	5092	0.041	85
14	5342	0.043	89
14	5588	0.045	93
14	5838	0.047	98
14	6084	0.049	102
14	6338	0.051	106
14	6468	0.052	109
14	6714	0.054	113
14	6964	0.056	117
14	7216	0.058	122
14	7460	0.06	126
14	7714	0.062	130
14	7958	0.064	135
14	8212	0.066	139
14	8460	0.068	143
14	8710	0.07	148
14	8958	0.072	152
14	9206	0.074	156
14	9456	0.076	161
14	9706	0.078	165
14	9956	0.08	169
15	85	0.001	0
15	221	0.002	0
15	349	0.003	2
15	593	0.005	5
15	847	0.007	9
15	1097	0.009	12
15	1345	0.011	15
15	1595	0.013	18
15	1837	0.015	21
15	1973	0.016	22
15	2221	0.018	25
15	2471	0.02	28
15	2721	0.022	32
15	2969	0.024	35
15	3223	0.026	38
15	3465	0.028	41
15	3715	0.03	44
15	3963	0.032	47
15	4215	0.034	51
15	4465	0.036	54
15	4713	0.038	57
15	4841	0.039	58
15	5093	0.041	61
15	5343	0.043	64
15	5589	0.045	67
15	5839	0.047	70
15	6085	0.049	73
15	6339	0.051	77
15	6585	0.053	80
15	6715	0.054	79
15	6965	0.056	83
15	7217	0.058	86
15	7461	0.06	89
15	7715	0.062	92
15	7959	0.064	95
15	8213	0.066	99
15	8461	0.068	102
15	8711	0.07	105
15	8959	0.072	108
15	9207	0.074	111
15	9457	0.076	114
15	9707	0.078	118
15	9957	0.08	121
16	86	0.001	0
16	222	0.002	0
16	466	0.004	2
16	594	0.005	5
16	848	0.007	7
16	1098	0.009	10
16	1346	0.011	12
16	1596	0.013	15
16	1838	0.015	17
16	2096	0.017	20
16	2342	0.019	22
16	2590	0.021	24
16	2840	0.023	27
16	2970	0.024	30
16	3224	0.026	32
16	3466	0.028	34
16	3716	0.03	37
16	3964	0.032	39
16	4216	0.034	42
16	4466	0.036	44
16	4714	0.038	46
16	4966	0.04	49
16	5094	0.041	52
16	5344	0.043	54
16	5590	0.045	56
16	5840	0.047	59
16	6086	0.049	61
16	6340	0.051	64
16	6586	0.053	66
16	6840	0.055	69
16	7084	0.057	71
16	7336	0.059	73
16	7584	0.061	76
16	7836	0.063	78
16	7960	0.064	81
16	8214	0.066	83
16	8462	0.068	86
16	8712	0.07	88
16	8960	0.072	91
16	9208	0.074	93
16	9458	0.076	95
16	9708	0.078	98
16	9958	0.08	100
17	87	0.001	0
17	223	0.002	0
17	467	0.004	1
17	719	0.006	2
17	849	0.007	3
17	1099	0.009	4
17	1347	0.011	5
17	1597	0.013	6
17	1839	0.015	7
17	2097	0.017	8
17	2343	0.019	10
17	2591	0.021	11
17	2841	0.023	12
17	3089	0.025	13
17	3225	0.026	15
17	3467	0.028	16
17	3717	0.03	17
17	3965	0.032	18
17	4217	0.034	19
17	4467	0.036	20
17	4715	0.038	22
17	4967	0.04	23
17	5209	0.042	24
17	5345	0.043	26
17	5591	0.045	27
17	5841	0.047	28
17	6087	0.049	29
17	6341	0.051	30
17	6587	0.053	31
17	6841	0.055	33
17	7085	0.057	34
17	7337	0.059	35
17	7585	0.061	36
17	7837	0.063	37
17	8083	0.065	38
17	8215	0.066	40
17	8463	0.068	41
17	8713	0.07	42
17	8961	0.072	43
17	9209	0.074	45
17	9459	0.076	46
17	9709	0.078	47
17	9959	0.08	48
18	88	0.001	0
18	224	0.002	0
18	468	0.004	0
18	720	0.006	1
18	966	0.008	1
18	1100	0.009	1
18	1348	0.011	2
18	1598	0.013	2
18	1840	0.015	2
18	2098	0.017	3
18	2344	0.019	3
18	2592	0.021	4
18	2842	0.023	4
18	3090	0.025	5
18	3338	0.027	5
18	3468	0.028	5
18	3718	0.03	5
18	3966	0.032	6
18	4218	0.034	6
18	4468	0.036	7
18	4716	0.038	7
18	4968	0.04	8
18	5210	0.042	8
18	5466	0.044	9
18	5592	0.045	8
18	5842	0.047	9
18	6088	0.049	9
18	6342	0.051	10
18	6588	0.053	10
18	6842	0.055	11
18	7086	0.057	11
18	7338	0.059	12
18	7586	0.061	12
18	7838	0.063	13
18	8084	0.065	13
18	8334	0.067	14
18	8464	0.068	13
18	8714	0.07	14
18	8962	0.072	14
18	9210	0.074	15
18	9460	0.076	15
18	9710	0.078	16
18	9960	0.08	16
19	89	0.001	0
19	225	0.002	1
19	469	0.004	1
19	721	0.006	0
19	967	0.008	0
19	1219	0.01	0
19	1467	0.012	0
19	1717	0.014	0
19	1841	0.015	0
19	2099	0.017	1
19	2345	0.019	1
19	2593	0.021	1
19	2843	0.023	1
19	3091	0.025	0
19	3339	0.027	0
19	3593	0.029	0
19	3843	0.031	0
19	4091	0.033	0
19	4337	0.035	0
19	4587	0.037	0
19	4717	0.038	1
19	4969	0.04	1
19	5211	0.042	0
19	5467	0.044	0
19	5713	0.046	0
19	5965	0.048	0
19	6215	0.05	0
19	6463	0.052	0
19	6589	0.053	1
19	6843	0.055	1
19	7087	0.057	1
19	7339	0.059	1
19	7587	0.061	1
19	7839	0.063	2
19	8085	0.065	1
19	8335	0.067	0
19	8583	0.069	0
19	8831	0.071	0
19	9085	0.073	0
19	9331	0.075	0
19	9579	0.077	0
19	9831	0.079	0
20	90	0.001	0
20	344	0.003	0
20	588	0.005	0
20	722	0.006	0
20	968	0.008	0
20	1220	0.01	0
20	1468	0.012	0
20	1718	0.014	0
20	1968	0.016	0
20	2216	0.018	0
20	2466	0.02	0
20	2716	0.022	0
20	2964	0.024	0
20	3092	0.025	0
20	3340	0.027	0
20	3594	0.029	0
20	3844	0.031	0
20	4092	0.033	0
20	4338	0.035	0
20	4588	0.037	0
20	4836	0.039	0
20	5088	0.041	0
20	5212	0.042	0
20	5468	0.044	0
20	5714	0.046	0
20	5966	0.048	0
20	6216	0.05	0
20	6464	0.052	0
20	6710	0.054	0
20	6960	0.056	0
20	7212	0.058	0
20	7456	0.06	0
20	7710	0.062	0
20	7954	0.064	0
20	8086	0.065	0
20	8336	0.067	0
20	8584	0.069	0
20	8832	0.071	0
20	9086	0.073	0
20	9332	0.075	0
20	9580	0.077	0
20	9832	0.079	0
21	91	0.001	2
21	345	0.003	0
21	589	0.005	0
21	843	0.007	0
21	969	0.008	1
21	1221	0.01	0
21	1469	0.012	0
21	1719	0.014	0
21	1969	0.016	0
21	2217	0.018	0
21	2467	0.02	0
21	2717	0.022	0
21	2965	0.024	0
21	3219	0.026	0
21	3341	0.027	0
21	3595	0.029	0
21	3845	0.031	0
21	4093	0.033	0
21	4339	0.035	0
21	4589	0.037	0
21	4837	0.039	0
21	5089	0.041	0
21	5339	0.043	0
21	5469	0.044	0
21	5715	0.046	0
21	5967	0.048	0
21	6217	0.05	0
21	6465	0.052	0
21	6711	0.054	0
21	6961	0.056	0
21	7213	0.058	0
21	7457	0.06	0
21	7711	0.062	0
21	7955	0.064	0
21	8209	0.066	0
21	8337	0.067	1
21	8585	0.069	0
21	8833	0.071	0
21	9087	0.073	0
21	9333	0.075	0
21	9581	0.077	0
21	9833	0.079	0
22	92	0.001	0.000731998217
22	93	0.001	0.000730730445
22	94	0.001	0.00046146089
22	95	0.001	0.000726792869
22	96	0.001	0.000453585738
22	97	0.001	0.000180378607
22	98	0.001	0.000721549164
22	99	0.001	0.000443098328
22	100	0.001	0.000164647492
22	101	0.001	0.000730435528
22	102	0.001	0.000460871056
22	103	0.001	0.000191306584
22	104	0.001	0.000720880494
22	105	0.001	0.000441760988
22	106	0.001	0.000162641482
22	107	0.001	0.000732108311
22	108	0.001	0.000464216622
22	109	0.001	0.000196324933
22	110	0.001	0.000721405797
22	111	0.001	0.000442811594
22	112	0.001	0.000164217391
22	113	0.001	0.000735453488
22	114	0.001	0.000470906976
22	115	0.001	0.000206360464
22	116	0.001	0.000729804862
22	226	0.002	0.001463996434
22	227	0.002	0.001192191335
22	228	0.002	0.00092292178
22	229	0.002	0.000907171476
22	230	0.002	0.000633964345
22	231	0.002	0.000360757214
22	232	0.002	0.000886196656
22	233	0.002	0.00060774582
22	234	0.002	0.000329294984
22	235	0.002	5.0844148e-005
22	236	0.002	0.000921742112
22	237	0.002	0.00065217764
22	238	0.002	0.000382613168
22	239	0.002	0.000113048696
22	240	0.002	0.000883521976
22	241	0.002	0.00060440247
22	242	0.002	0.000325282964
22	243	0.002	4.6163458e-005
22	244	0.002	0.000928433244
22	245	0.002	0.000660541555
22	246	0.002	0.000392649866
22	247	0.002	0.000124758177
22	248	0.002	0.000885623188
22	249	0.002	0.000607028985
22	250	0.002	0.000328434782
22	350	0.003	0.001941813952
22	351	0.003	0.00167726744
22	352	0.003	0.001412720928
22	353	0.003	0.001148174416
22	354	0.003	0.000883627904
22	355	0.003	0.000619081392
22	356	0.003	0.00035453488
22	357	0.003	8.9988368e-005
22	358	0.003	0.002459609724
22	359	0.003	0.002189414586
22	360	0.003	0.001919219448
22	361	0.003	0.00164902431
22	362	0.003	0.001378829172
22	363	0.003	0.001108634034
22	364	0.003	0.000838438896
22	365	0.003	0.000568243758
22	366	0.003	0.00029804862
22	367	0.003	2.7853482e-005
22	368	0.003	0.002195994651
22	369	0.003	0.001653652225
22	370	0.003	0.00138438267
22	371	0.003	0.001087550083
22	372	0.003	0.000814342952
22	373	0.003	0.000541135821
22	374	0.003	0.000772393312
22	470	0.004	0.001843484224
22	471	0.004	0.001573919752
22	472	0.004	0.00130435528
22	473	0.004	0.001034790808
22	474	0.004	0.000765226336
22	475	0.004	0.001767043952
22	476	0.004	0.001487924446
22	477	0.004	0.00120880494
22	478	0.004	0.000929685434
22	479	0.004	0.000650565928
22	480	0.004	0.000371446422
22	481	0.004	0.001856866488
22	482	0.004	0.001588974799
22	483	0.004	0.00132108311
22	484	0.004	0.001053191421
22	485	0.004	0.000785299732
22	486	0.004	0.000517408043
22	487	0.004	0.000249516354
22	488	0.004	0.002049840579
22	489	0.004	0.001771246376
22	490	0.004	0.001492652173
22	491	0.004	0.00121405797
22	492	0.004	0.000935463767
22	493	0.004	0.000656869564
22	494	0.004	0.000378275361
22	595	0.005	0.001825441856
22	596	0.005	0.001560895344
22	597	0.005	0.001296348832
22	598	0.005	0.00103180232
22	599	0.005	0.000767255808
22	600	0.005	0.000502709296
22	601	0.005	0.000238162784
22	602	0.005	0.001757658344
22	603	0.005	0.001487463206
22	604	0.005	0.001217268068
22	605	0.005	0.00094707293
22	606	0.005	0.000676877792
22	607	0.005	0.000406682654
22	608	0.005	0.000136487516
22	609	0.005	0.003927992868
22	610	0.005	0.003115113115
22	611	0.005	0.00284584356
22	612	0.005	0.00226792869
22	613	0.005	0.001994721559
22	614	0.005	0.001721514428
22	615	0.005	0.002493942476
22	616	0.005	0.00221549164
22	617	0.005	0.001937040804
22	618	0.005	0.001658589968
22	619	0.005	0.001495661864
22	723	0.006	0.002092326916
22	724	0.006	0.00181320741
22	725	0.006	0.001534087904
22	726	0.006	0.001254968398
22	727	0.006	0.000975848892
22	728	0.006	0.000696729386
22	729	0.006	0.001981624665
22	730	0.006	0.001713732976
22	731	0.006	0.001445841287
22	732	0.006	0.001177949598
22	733	0.006	0.000910057909
22	734	0.006	0.00064216622
22	735	0.006	0.000374274531
22	736	0.006	0.002099681158
22	737	0.006	0.001821086955
22	738	0.006	0.001542492752
22	739	0.006	0.001263898549
22	740	0.006	0.000985304346
22	741	0.006	0.000706710143
22	742	0.006	0.00042811594
22	743	0.006	0.000149521737
22	744	0.006	0.000973616272
22	745	0.006	0.00070906976
22	746	0.006	0.000444523248
22	747	0.006	0.000179976736
22	850	0.007	0.001866292378
22	851	0.007	0.00159609724
22	852	0.007	0.001325902102
22	853	0.007	0.001055706964
22	854	0.007	0.000785511826
22	855	0.007	0.000515316688
22	856	0.007	0.00024512155
22	857	0.007	0.005659991085
22	858	0.007	0.004576574005
22	859	0.007	0.00430730445
22	860	0.007	0.003448307297
22	861	0.007	0.003175100166
22	862	0.007	0.002901893035
22	863	0.007	0.003380139132
22	864	0.007	0.003101688296
22	865	0.007	0.00282323746
22	866	0.007	0.002544786624
22	867	0.007	0.003226097392
22	868	0.007	0.00295653292
22	869	0.007	0.002686968448
22	870	0.007	0.002417403976
22	871	0.007	0.002147839504
22	872	0.007	0.00141760988
22	873	0.007	0.001138490374
22	874	0.007	0.000859370868
22	970	0.008	0.002106382842
22	971	0.008	0.001838491153
22	972	0.008	0.001570599464
22	973	0.008	0.001302707775
22	974	0.008	0.001034816086
22	975	0.008	0.000766924397
22	976	0.008	0.000499032708
22	977	0.008	0.001870927534
22	978	0.008	0.001592333331
22	979	0.008	0.001313739128
22	980	0.008	0.001035144925
22	981	0.008	0.000756550722
22	982	0.008	0.000477956519
22	983	0.008	0.000199362316
22	984	0.008	0.001915430224
22	985	0.008	0.001650883712
22	986	0.008	0.0013863372
22	987	0.008	0.001121790688
22	988	0.008	0.000857244176
22	989	0.008	0.000592697664
22	990	0.008	0.000328151152
22	991	0.008	6.360464e-005
22	992	0.008	0.000974926412
22	993	0.008	0.000704731274
22	994	0.008	0.000434536136
22	1101	0.009	0.007391989302
22	1102	0.009	0.006038034895
22	1103	0.009	0.00576876534
22	1104	0.009	0.004628685904
22	1105	0.009	0.004355478773
22	1106	0.009	0.004082271642
22	1107	0.009	0.004266335788
22	1108	0.009	0.003987884952
22	1109	0.009	0.003709434116
22	1110	0.009	0.00343098328
22	1111	0.009	0.003878275032
22	1112	0.009	0.00360871056
22	1113	0.009	0.003339146088
22	1114	0.009	0.003069581616
22	1115	0.009	0.002800017144
22	1116	0.009	0.002580251362
22	1117	0.009	0.002301131856
22	1118	0.009	0.00202201235
22	1119	0.009	0.001742892844
22	1120	0.009	0.001463773338
22	1121	0.009	0.001184653832
22	1122	0.009	0.001231141019
22	1123	0.009	0.00096324933
22	1124	0.009	0.000695357641
22	1125	0.009	0.000427465952
22	1224	0.01	0.001920768113
22	1225	0.01	0.00164217391
22	1226	0.01	0.001363579707
22	1227	0.01	0.001084985504
22	1228	0.01	0.000806391301
22	1229	0.01	0.000527797098
22	1230	0.01	0.000249202895
22	1231	0.01	0.001799058128
22	1232	0.01	0.001534511616
22	1233	0.01	0.001269965104
22	1234	0.01	0.001005418592
22	1235	0.01	0.00074087208
22	1236	0.01	0.000476325568
22	1237	0.01	0.000211779056
22	1238	0.01	0.002164340998
22	1239	0.01	0.00189414586
22	1240	0.01	0.001623950722
22	1241	0.01	0.001353755584
22	1242	0.01	0.001083560446
22	1243	0.01	0.000813365308
22	1244	0.01	0.00054317017
22	1245	0.01	0.000272975032
22	1246	0.01	2.779894e-006
22	1247	0.01	0.008123987519
22	1248	0.01	0.006499495785
22	1349	0.011	0.005809064511
22	1350	0.011	0.00553585738
22	1351	0.011	0.005262650249
22	1352	0.011	0.005152532444
22	1353	0.011	0.004874081608
22	1354	0.011	0.004595630772
22	1355	0.011	0.004317179936
22	1356	0.011	0.004530452672
22	1357	0.011	0.0042608882
22	1358	0.011	0.003991323728
22	1359	0.011	0.003721759256
22	1360	0.011	0.003452194784
22	1361	0.011	0.002905534326
22	1362	0.011	0.00262641482
22	1363	0.011	0.002347295314
22	1364	0.011	0.002068175808
22	1365	0.011	0.001789056302
22	1366	0.011	0.001509936796
22	1367	0.011	0.002159574263
22	1368	0.011	0.001891682574
22	1369	0.011	0.001623790885
22	1370	0.011	0.001355899196
22	1371	0.011	0.001088007507
22	1372	0.011	0.000820115818
22	1373	0.011	0.000552224129
22	1472	0.012	0.001970608692
22	1473	0.012	0.001692014489
22	1474	0.012	0.001413420286
22	1475	0.012	0.001134826083
22	1476	0.012	0.00085623188
22	1477	0.012	0.000577637677
22	1478	0.012	0.000299043474
22	1479	0.012	2.0449271e-005
22	1480	0.012	0.001947232544
22	1481	0.012	0.001682686032
22	1482	0.012	0.00141813952
22	1483	0.012	0.001153593008
22	1484	0.012	0.000889046496
22	1485	0.012	0.000624499984
22	1486	0.012	0.000359953472
22	1487	0.012	9.540696e-005
22	1488	0.012	0.001732584756
22	1489	0.012	0.001462389618
22	1490	0.012	0.00119219448
22	1491	0.012	0.000921999342
22	1492	0.012	0.000651804204
22	1493	0.012	0.000381609066
22	1494	0.012	0.000111413928
22	1495	0.012	0.009855985736
22	1496	0.012	0.00823022623
22	1599	0.013	0.006989443118
22	1600	0.013	0.006716235987
22	1601	0.013	0.006443028856
22	1602	0.013	0.0060387291
22	1603	0.013	0.005760278264
22	1604	0.013	0.005481827428
22	1605	0.013	0.005203376592
22	1606	0.013	0.005182630312
22	1607	0.013	0.00491306584
22	1608	0.013	0.004643501368
22	1609	0.013	0.004373936896
22	1610	0.013	0.004104372424
22	1611	0.013	0.00323081729
22	1612	0.013	0.002951697784
22	1613	0.013	0.002672578278
22	1614	0.013	0.002393458772
22	1615	0.013	0.002114339266
22	1616	0.013	0.00183521976
22	1617	0.013	0.00228433244
22	1618	0.013	0.002016440751
22	1619	0.013	0.001748549062
22	1620	0.013	0.001480657373
22	1621	0.013	0.001212765684
22	1622	0.013	0.000944873995
22	1623	0.013	0.000676982306
22	1723	0.014	0.001741855068
22	1724	0.014	0.001463260865
22	1725	0.014	0.001184666662
22	1726	0.014	0.000906072459
22	1727	0.014	0.000627478256
22	1728	0.014	0.000348884053
22	1729	0.014	7.028985e-005
22	1730	0.014	0.001830860448
22	1731	0.014	0.001566313936
22	1732	0.014	0.001301767424
22	1733	0.014	0.001037220912
22	1734	0.014	0.0007726744
22	1735	0.014	0.000508127888
22	1736	0.014	0.000243581376
22	1737	0.014	0.00184121879
22	1738	0.014	0.001571023652
22	1739	0.014	0.001300828514
22	1740	0.014	0.001030633376
22	1741	0.014	0.000760438238
22	1742	0.014	0.0004902431
22	1743	0.014	0.000220047962
22	1744	0.014	0.011587983953
22	1745	0.014	0.009960956675
22	1746	0.014	0.00969168712
22	1747	0.014	0.007169821725
22	1842	0.015	0.006924925756
22	1843	0.015	0.00664647492
22	1844	0.015	0.006368024084
22	1845	0.015	0.006089573248
22	1846	0.015	0.005834807952
22	1847	0.015	0.00556524348
22	1848	0.015	0.005295679008
22	1849	0.015	0.005026114536
22	1850	0.015	0.004756550064
22	1851	0.015	0.003556100254
22	1852	0.015	0.003276980748
22	1853	0.015	0.002997861242
22	1854	0.015	0.002718741736
22	1855	0.015	0.00243962223
22	1856	0.015	0.002160502724
22	1857	0.015	0.002409090617
22	1858	0.015	0.002141198928
22	1859	0.015	0.001873307239
22	1860	0.015	0.00160541555
22	1861	0.015	0.001337523861
22	1862	0.015	0.001069632172
22	1863	0.015	0.000801740483
22	1864	0.015	0.000791695647
22	1865	0.015	0.000513101444
22	1866	0.015	0.000234507241
22	1974	0.016	0.001979034864
22	1975	0.016	0.001714488352
22	1976	0.016	0.00144994184
22	1977	0.016	0.001185395328
22	1978	0.016	0.000920848816
22	1979	0.016	0.000656302304
22	1980	0.016	0.000391755792
22	1981	0.016	0.00012720928
22	1982	0.016	0.001949852824
22	1983	0.016	0.001679657686
22	1984	0.016	0.001409462548
22	1985	0.016	0.00113926741
22	1986	0.016	0.000869072272
22	1987	0.016	0.000598877134
22	1988	0.016	0.000328681996
22	1989	0.016	5.8486858e-005
22	1990	0.016	0.01331998217
22	1991	0.016	0.011422417565
22	1992	0.016	0.01115314801
22	1993	0.016	0.008896614594
22	1994	0.016	0.008623407463
22	1995	0.016	0.008350200332
22	1996	0.016	0.006811122412
22	1997	0.016	0.006532671576
22	1998	0.016	0.00625422074
22	2100	0.017	0.006486985592
22	2101	0.017	0.00621742112
22	2102	0.017	0.005947856648
22	2103	0.017	0.005678292176
22	2104	0.017	0.005408727704
22	2105	0.017	0.003881383218
22	2106	0.017	0.003602263712
22	2107	0.017	0.003323144206
22	2108	0.017	0.0030440247
22	2109	0.017	0.002764905194
22	2110	0.017	0.002485785688
22	2111	0.017	0.002533848794
22	2112	0.017	0.002265957105
22	2113	0.017	0.001998065416
22	2114	0.017	0.001730173727
22	2115	0.017	0.001462282038
22	2116	0.017	0.001194390349
22	2117	0.017	0.00092649866
22	2118	0.017	0.001955913038
22	2119	0.017	0.001677318835
22	2120	0.017	0.001398724632
22	2121	0.017	0.001120130429
22	2122	0.017	0.000841536226
22	2123	0.017	0.000562942023
22	2124	0.017	0.00028434782
22	2222	0.018	0.001862662768
22	2223	0.018	0.001598116256
22	2224	0.018	0.001333569744
22	2225	0.018	0.001069023232
22	2226	0.018	0.00080447672
22	2227	0.018	0.000539930208
22	2228	0.018	0.000275383696
22	2229	0.018	1.0837184e-005
22	2230	0.018	0.00178829172
22	2231	0.018	0.001518096582
22	2232	0.018	0.001247901444
22	2233	0.018	0.000977706306
22	2234	0.018	0.000707511168
22	2235	0.018	0.00043731603
22	2236	0.018	0.000167120892
22	2237	0.018	0.015051980387
22	2238	0.018	0.012883878455
22	2239	0.018	0.0126146089
22	2240	0.018	0.010076993201
22	2241	0.018	0.00980378607
22	2242	0.018	0.009530578939
22	2243	0.018	0.007975769904
22	2244	0.018	0.007697319068
22	2245	0.018	0.007418868232
22	2246	0.018	0.007140417396
22	2346	0.019	0.007139163232
22	2347	0.019	0.00686959876
22	2348	0.019	0.006600034288
22	2349	0.019	0.006330469816
22	2350	0.019	0.006060905344
22	2351	0.019	0.004206666182
22	2352	0.019	0.003927546676
22	2353	0.019	0.00364842717
22	2354	0.019	0.003369307664
22	2355	0.019	0.003090188158
22	2356	0.019	0.002811068652
22	2357	0.019	0.002658606971
22	2358	0.019	0.002390715282
22	2359	0.019	0.002122823593
22	2360	0.019	0.001854931904
22	2361	0.019	0.001587040215
22	2362	0.019	0.001319148526
22	2363	0.019	0.001051256837
22	2364	0.019	0.002005753617
22	2365	0.019	0.001727159414
22	2366	0.019	0.001448565211
22	2367	0.019	0.001169971008
22	2368	0.019	0.000891376805
22	2369	0.019	0.000612782602
22	2370	0.019	0.000334188399
22	2472	0.02	0.001746290672
22	2473	0.02	0.00148174416
22	2474	0.02	0.001217197648
22	2475	0.02	0.000952651136
22	2476	0.02	0.000688104624
22	2477	0.02	0.000423558112
22	2478	0.02	0.0001590116
22	2479	0.02	0.001896925754
22	2480	0.02	0.001626730616
22	2481	0.02	0.001356535478
22	2482	0.02	0.00108634034
22	2483	0.02	0.000816145202
22	2484	0.02	0.000545950064
22	2485	0.02	0.000275754926
22	2486	0.02	5.559788e-006
22	2487	0.02	0.016783978604
22	2488	0.02	0.014345339345
22	2489	0.02	0.01407606979
22	2490	0.02	0.011257371808
22	2491	0.02	0.010984164677
22	2492	0.02	0.010710957546
22	2493	0.02	0.00886196656
22	2494	0.02	0.008583515724
22	2495	0.02	0.008305064888
22	2496	0.02	0.008026614052
22	2594	0.021	0.007791340872
22	2595	0.021	0.0075217764
22	2596	0.021	0.007252211928
22	2597	0.021	0.006982647456
22	2598	0.021	0.006713082984
22	2599	0.021	0.004531949146
22	2600	0.021	0.00425282964
22	2601	0.021	0.003973710134
22	2602	0.021	0.003694590628
22	2603	0.021	0.003415471122
22	2604	0.021	0.003136351616
22	2605	0.021	0.002783365148
22	2606	0.021	0.002515473459
22	2607	0.021	0.00224758177
22	2608	0.021	0.001979690081
22	2609	0.021	0.001711798392
22	2610	0.021	0.001443906703
22	2611	0.021	0.001176015014
22	2612	0.021	0.002055594196
22	2613	0.021	0.001776999993
22	2614	0.021	0.00149840579
22	2615	0.021	0.001219811587
22	2616	0.021	0.000941217384
22	2617	0.021	0.000662623181
22	2618	0.021	0.000384028978
22	2722	0.022	0.001894465088
22	2723	0.022	0.001629918576
22	2724	0.022	0.001365372064
22	2725	0.022	0.001100825552
22	2726	0.022	0.00083627904
22	2727	0.022	0.000571732528
22	2728	0.022	0.000307186016
22	2729	0.022	4.2639504e-005
22	2730	0.022	0.00173536465
22	2731	0.022	0.001465169512
22	2732	0.022	0.001194974374
22	2733	0.022	0.000924779236
22	2734	0.022	0.000654584098
22	2735	0.022	0.00038438896
22	2736	0.022	0.000114193822
22	2737	0.022	0.018515976821
22	2738	0.022	0.015806800235
22	2739	0.022	0.01553753068
22	2740	0.022	0.012437750415
22	2741	0.022	0.012164543284
22	2742	0.022	0.011891336153
22	2743	0.022	0.009748163216
22	2744	0.022	0.00946971238
22	2745	0.022	0.009191261544
22	2746	0.022	0.008912810708
22	2844	0.023	0.008443518512
22	2845	0.023	0.00817395404
22	2846	0.023	0.007904389568
22	2847	0.023	0.007634825096
22	2848	0.023	0.007365260624
22	2849	0.023	0.00485723211
22	2850	0.023	0.004578112604
22	2851	0.023	0.004298993098
22	2852	0.023	0.004019873592
22	2853	0.023	0.003740754086
22	2854	0.023	0.00346163458
22	2855	0.023	0.002908123325
22	2856	0.023	0.002640231636
22	2857	0.023	0.002372339947
22	2858	0.023	0.002104448258
22	2859	0.023	0.001836556569
22	2860	0.023	0.00156866488
22	2861	0.023	0.001300773191
22	2862	0.023	0.002105434775
22	2863	0.023	0.001826840572
22	2864	0.023	0.001548246369
22	2865	0.023	0.001269652166
22	2866	0.023	0.000991057963
22	2867	0.023	0.00071246376
22	2868	0.023	0.000433869557
22	2971	0.024	0.001778092992
22	2972	0.024	0.00151354648
22	2973	0.024	0.001248999968
22	2974	0.024	0.000984453456
22	2975	0.024	0.000719906944
22	2976	0.024	0.000455360432
22	2977	0.024	0.00019081392
22	2978	0.024	0.001843998684
22	2979	0.024	0.001573803546
22	2980	0.024	0.001303608408
22	2981	0.024	0.00103341327
22	2982	0.024	0.000763218132
22	2983	0.024	0.000493022994
22	2984	0.024	0.000222827856
22	2985	0.024	0.020247975038
22	2986	0.024	0.017268261125
22	2987	0.024	0.01699899157
22	2988	0.024	0.013618129022
22	2989	0.024	0.013344921891
22	2990	0.024	0.01307171476
22	2991	0.024	0.010634359872
22	2992	0.024	0.010355909036
22	2993	0.024	0.0100774582
22	2994	0.024	0.009799007364
22	2995	0.024	0.008095696152
22	3093	0.025	0.005182515074
22	3094	0.025	0.004903395568
22	3095	0.025	0.004624276062
22	3096	0.025	0.004345156556
22	3097	0.025	0.00406603705
22	3098	0.025	0.003786917544
22	3099	0.025	0.003032881502
22	3100	0.025	0.002764989813
22	3101	0.025	0.002497098124
22	3102	0.025	0.002229206435
22	3103	0.025	0.001961314746
22	3104	0.025	0.001693423057
22	3105	0.025	0.001425531368
22	3106	0.025	0.002155275354
22	3107	0.025	0.001876681151
22	3108	0.025	0.001598086948
22	3109	0.025	0.001319492745
22	3110	0.025	0.001040898542
22	3111	0.025	0.000762304339
22	3112	0.025	0.000483710136
22	3113	0.025	0.000205115933
22	3114	0.025	0.000926267408
22	3115	0.025	0.000661720896
22	3116	0.025	0.000397174384
22	3117	0.025	0.000132627872
22	3226	0.026	0.001952632718
22	3227	0.026	0.00168243758
22	3228	0.026	0.001412242442
22	3229	0.026	0.001142047304
22	3230	0.026	0.000871852166
22	3231	0.026	0.000601657028
22	3232	0.026	0.00033146189
22	3233	0.026	6.1266752e-005
22	3234	0.026	0.021979973255
22	3235	0.026	0.018729722015
22	3236	0.026	0.01846045246
22	3237	0.026	0.014798507629
22	3238	0.026	0.014525300498
22	3239	0.026	0.014252093367
22	3240	0.026	0.011520556528
22	3241	0.026	0.011242105692
22	3242	0.026	0.010963654856
22	3243	0.026	0.01068520402
22	3244	0.026	0.00982613168
22	3245	0.026	0.009556567208
22	3246	0.026	0.009287002736
22	3247	0.026	0.009017438264
22	3248	0.026	0.008747873792
22	3249	0.026	0.004507798038
22	3250	0.026	0.004228678532
22	3342	0.027	0.003157639679
22	3343	0.027	0.00288974799
22	3344	0.027	0.002621856301
22	3345	0.027	0.002353964612
22	3346	0.027	0.002086072923
22	3347	0.027	0.001818181234
22	3348	0.027	0.001550289545
22	3349	0.027	0.00192652173
22	3350	0.027	0.001647927527
22	3351	0.027	0.001369333324
22	3352	0.027	0.001090739121
22	3353	0.027	0.000812144918
22	3354	0.027	0.000533550715
22	3355	0.027	0.000254956512
22	3356	0.027	0.00186808136
22	3357	0.027	0.001603534848
22	3358	0.027	0.001338988336
22	3359	0.027	0.001074441824
22	3360	0.027	0.000809895312
22	3361	0.027	0.0005453488
22	3362	0.027	0.000280802288
22	3363	0.027	1.6255776e-005
22	3364	0.027	0.000791071614
22	3365	0.027	0.000520876476
22	3366	0.027	0.000250681338
22	3469	0.028	0.023711971472
22	3470	0.028	0.020191182905
22	3471	0.028	0.01992191335
22	3472	0.028	0.015978886236
22	3473	0.028	0.015705679105
22	3474	0.028	0.015432471974
22	3475	0.028	0.012406753184
22	3476	0.028	0.012128302348
22	3477	0.028	0.011849851512
22	3478	0.028	0.011571400676
22	3479	0.028	0.01047830932
22	3480	0.028	0.010208744848
22	3481	0.028	0.009939180376
22	3482	0.028	0.009669615904
22	3483	0.028	0.009400051432
22	3484	0.028	0.005949559026
22	3485	0.028	0.00567043952
22	3486	0.028	0.005391320014
22	3487	0.028	0.005112200508
22	3488	0.028	0.004833081002
22	3489	0.028	0.004553961496
22	3490	0.028	0.002282397856
22	3491	0.028	0.002014506167
22	3492	0.028	0.001746614478
22	3493	0.028	0.001478722789
22	3598	0.029	0.001976362309
22	3599	0.029	0.001697768106
22	3600	0.029	0.001419173903
22	3601	0.029	0.0011405797
22	3602	0.029	0.000861985497
22	3603	0.029	0.000583391294
22	3604	0.029	0.000304797091
22	3605	0.029	2.6202888e-005
22	3606	0.029	0.001751709264
22	3607	0.029	0.001487162752
22	3608	0.029	0.00122261624
22	3609	0.029	0.000958069728
22	3610	0.029	0.000693523216
22	3611	0.029	0.000428976704
22	3612	0.029	0.000164430192
22	3613	0.029	0.0019804862
22	3614	0.029	0.001710291062
22	3615	0.029	0.001440095924
22	3616	0.029	0.001169900786
22	3617	0.029	0.000899705648
22	3618	0.029	0.00062951051
22	3619	0.029	0.000359315372
22	3620	0.029	8.9120234e-005
22	3621	0.029	0.024443969689
22	3622	0.029	0.020652643795
22	3719	0.03	0.017159264843
22	3720	0.03	0.016886057712
22	3721	0.03	0.016612850581
22	3722	0.03	0.01329294984
22	3723	0.03	0.013014499004
22	3724	0.03	0.012736048168
22	3725	0.03	0.012457597332
22	3726	0.03	0.01113048696
22	3727	0.03	0.010860922488
22	3728	0.03	0.010591358016
22	3729	0.03	0.010321793544
22	3730	0.03	0.010052229072
22	3731	0.03	0.00627484199
22	3732	0.03	0.005995722484
22	3733	0.03	0.005716602978
22	3734	0.03	0.005437483472
22	3735	0.03	0.005158363966
22	3736	0.03	0.00487924446
22	3737	0.03	0.0032108311
22	3738	0.03	0.002942939411
22	3739	0.03	0.002675047722
22	3740	0.03	0.002407156033
22	3741	0.03	0.002139264344
22	3742	0.03	0.001871372655
22	3743	0.03	0.001603480966
22	3848	0.031	0.001747608685
22	3849	0.031	0.001469014482
22	3850	0.031	0.001190420279
22	3851	0.031	0.000911826076
22	3852	0.031	0.000633231873
22	3853	0.031	0.00035463767
22	3854	0.031	7.6043467e-005
22	3855	0.031	0.00189988368
22	3856	0.031	0.001635337168
22	3857	0.031	0.001370790656
22	3858	0.031	0.001106244144
22	3859	0.031	0.000841697632
22	3860	0.031	0.00057715112
22	3861	0.031	0.000312604608
22	3862	0.031	4.8058096e-005
22	3863	0.031	0.001818925096
22	3864	0.031	0.001548729958
22	3865	0.031	0.00127853482
22	3866	0.031	0.001008339682
22	3867	0.031	0.000738144544
22	3868	0.031	0.000467949406
22	3869	0.031	0.000197754268
22	3870	0.031	0.026175967906
22	3871	0.031	0.02238337424
22	3872	0.031	0.022114104685
22	3967	0.032	0.01833964345
22	3968	0.032	0.018066436319
22	3969	0.032	0.017793229188
22	3970	0.032	0.014179146496
22	3971	0.032	0.01390069566
22	3972	0.032	0.013622244824
22	3973	0.032	0.013343793988
22	3974	0.032	0.0117826646
22	3975	0.032	0.011513100128
22	3976	0.032	0.011243535656
22	3977	0.032	0.010973971184
22	3978	0.032	0.010704406712
22	3979	0.032	0.006600124954
22	3980	0.032	0.006321005448
22	3981	0.032	0.006041885942
22	3982	0.032	0.005762766436
22	3983	0.032	0.00548364693
22	3984	0.032	0.005204527424
22	3985	0.032	0.003335589277
22	3986	0.032	0.003067697588
22	3987	0.032	0.002799805899
22	3988	0.032	0.00253191421
22	3989	0.032	0.002264022521
22	3990	0.032	0.001996130832
22	3991	0.032	0.001728239143
22	4096	0.033	0.001797449264
22	4097	0.033	0.001518855061
22	4098	0.033	0.001240260858
22	4099	0.033	0.000961666655
22	4100	0.033	0.000683072452
22	4101	0.033	0.000404478249
22	4102	0.033	0.000125884046
22	4103	0.033	0.001783511584
22	4104	0.033	0.001518965072
22	4105	0.033	0.00125441856
22	4106	0.033	0.000989872048
22	4107	0.033	0.000725325536
22	4108	0.033	0.000460779024
22	4109	0.033	0.000196232512
22	4110	0.033	0.00192755913
22	4111	0.033	0.001657363992
22	4112	0.033	0.001387168854
22	4113	0.033	0.001116973716
22	4114	0.033	0.000846778578
22	4115	0.033	0.00057658344
22	4116	0.033	0.000306388302
22	4117	0.033	3.6193164e-005
22	4118	0.033	0.027907966123
22	4119	0.033	0.02384483513
22	4120	0.033	0.023575565575
22	4219	0.034	0.019520022057
22	4220	0.034	0.019246814926
22	4221	0.034	0.018973607795
22	4222	0.034	0.015065343152
22	4223	0.034	0.014786892316
22	4224	0.034	0.01450844148
22	4225	0.034	0.014229990644
22	4226	0.034	0.01243484224
22	4227	0.034	0.012165277768
22	4228	0.034	0.011895713296
22	4229	0.034	0.011626148824
22	4230	0.034	0.011356584352
22	4231	0.034	0.006925407918
22	4232	0.034	0.006646288412
22	4233	0.034	0.006367168906
22	4234	0.034	0.0060880494
22	4235	0.034	0.005808929894
22	4236	0.034	0.005529810388
22	4237	0.034	0.003460347454
22	4238	0.034	0.003192455765
22	4239	0.034	0.002924564076
22	4240	0.034	0.002656672387
22	4241	0.034	0.002388780698
22	4242	0.034	0.002120889009
22	4243	0.034	0.00185299732
22	4342	0.035	0.001847289843
22	4343	0.035	0.00156869564
22	4344	0.035	0.001290101437
22	4345	0.035	0.001011507234
22	4346	0.035	0.000732913031
22	4347	0.035	0.000454318828
22	4348	0.035	0.000175724625
22	4349	0.035	0.001931686
22	4350	0.035	0.001667139488
22	4351	0.035	0.001402592976
22	4352	0.035	0.001138046464
22	4353	0.035	0.000873499952
22	4354	0.035	0.00060895344
22	4355	0.035	0.000344406928
22	4356	0.035	7.9860416e-005
22	4357	0.035	0.001765998026
22	4358	0.035	0.001495802888
22	4359	0.035	0.00122560775
22	4360	0.035	0.000955412612
22	4361	0.035	0.000685217474
22	4362	0.035	0.000415022336
22	4363	0.035	0.000144827198
22	4364	0.035	0.02963996434
22	4365	0.035	0.02530629602
22	4366	0.035	0.025037026465
22	4469	0.036	0.020700400664
22	4470	0.036	0.020427193533
22	4471	0.036	0.020153986402
22	4472	0.036	0.015951539808
22	4473	0.036	0.015673088972
22	4474	0.036	0.015394638136
22	4475	0.036	0.0151161873
22	4476	0.036	0.01308701988
22	4477	0.036	0.012817455408
22	4478	0.036	0.012547890936
22	4479	0.036	0.012278326464
22	4480	0.036	0.012008761992
22	4481	0.036	0.007250690882
22	4482	0.036	0.006971571376
22	4483	0.036	0.00669245187
22	4484	0.036	0.006413332364
22	4485	0.036	0.006134212858
22	4486	0.036	0.005855093352
22	4487	0.036	0.003585105631
22	4488	0.036	0.003317213942
22	4489	0.036	0.003049322253
22	4490	0.036	0.002781430564
22	4491	0.036	0.002513538875
22	4492	0.036	0.002245647186
22	4493	0.036	0.001977755497
22	4593	0.037	0.001897130422
22	4594	0.037	0.001618536219
22	4595	0.037	0.001339942016
22	4596	0.037	0.001061347813
22	4597	0.037	0.00078275361
22	4598	0.037	0.000504159407
22	4599	0.037	0.000225565204
22	4600	0.037	0.001815313904
22	4601	0.037	0.001550767392
22	4602	0.037	0.00128622088
22	4603	0.037	0.001021674368
22	4604	0.037	0.000757127856
22	4605	0.037	0.000492581344
22	4606	0.037	0.000228034832
22	4607	0.037	0.00187463206
22	4608	0.037	0.001604436922
22	4609	0.037	0.001334241784
22	4610	0.037	0.001064046646
22	4611	0.037	0.000793851508
22	4612	0.037	0.00052365637
22	4613	0.037	0.000253461232
22	4614	0.037	0.031371962557
22	4615	0.037	0.02676775691
22	4616	0.037	0.026498487355
22	4617	0.037	0.020880779271
22	4718	0.038	0.016837736464
22	4719	0.038	0.016559285628
22	4720	0.038	0.016280834792
22	4721	0.038	0.016002383956
22	4722	0.038	0.01373919752
22	4723	0.038	0.013469633048
22	4724	0.038	0.013200068576
22	4725	0.038	0.012930504104
22	4726	0.038	0.012660939632
22	4727	0.038	0.007575973846
22	4728	0.038	0.00729685434
22	4729	0.038	0.007017734834
22	4730	0.038	0.006738615328
22	4731	0.038	0.006459495822
22	4732	0.038	0.006180376316
22	4733	0.038	0.003709863808
22	4734	0.038	0.003441972119
22	4735	0.038	0.00317408043
22	4736	0.038	0.002906188741
22	4737	0.038	0.002638297052
22	4738	0.038	0.002370405363
22	4739	0.038	0.002102513674
22	4740	0.038	0.000946971001
22	4741	0.038	0.000668376798
22	4742	0.038	0.000389782595
22	4842	0.039	0.00196348832
22	4843	0.039	0.001698941808
22	4844	0.039	0.001434395296
22	4845	0.039	0.001169848784
22	4846	0.039	0.000905302272
22	4847	0.039	0.00064075576
22	4848	0.039	0.000376209248
22	4849	0.039	0.000111662736
22	4850	0.039	0.001983266094
22	4851	0.039	0.001713070956
22	4852	0.039	0.001442875818
22	4853	0.039	0.00117268068
22	4854	0.039	0.000902485542
22	4855	0.039	0.000632290404
22	4856	0.039	0.000362095266
22	4857	0.039	9.1900128e-005
22	4858	0.039	0.033103960774
22	4859	0.039	0.0282292178
22	4860	0.039	0.027959948245
22	4861	0.039	0.02260757214
22	4862	0.039	0.022334365009
22	4863	0.039	0.022061157878
22	4864	0.039	0.01672393312
22	4865	0.039	0.016445482284
22	4866	0.039	0.016167031448
22	4970	0.04	0.01439137516
22	4971	0.04	0.014121810688
22	4972	0.04	0.013852246216
22	4973	0.04	0.013582681744
22	4974	0.04	0.013313117272
22	4975	0.04	0.00790125681
22	4976	0.04	0.007622137304
22	4977	0.04	0.007343017798
22	4978	0.04	0.007063898292
22	4979	0.04	0.006784778786
22	4980	0.04	0.00650565928
22	4981	0.04	0.003834621985
22	4982	0.04	0.003566730296
22	4983	0.04	0.003298838607
22	4984	0.04	0.003030946918
22	4985	0.04	0.002763055229
22	4986	0.04	0.00249516354
22	4987	0.04	0.002227271851
22	4988	0.04	0.002111188392
22	4989	0.04	0.001832594189
22	4990	0.04	0.001553999986
22	4991	0.04	0.001275405783
22	4992	0.04	0.00099681158
22	4993	0.04	0.000718217377
22	4994	0.04	0.000439623174
22	5095	0.041	0.001847116224
22	5096	0.041	0.001582569712
22	5097	0.041	0.0013180232
22	5098	0.041	0.001053476688
22	5099	0.041	0.000788930176
22	5100	0.041	0.000524383664
22	5101	0.041	0.000259837152
22	5102	0.041	0.00182170499
22	5103	0.041	0.001551509852
22	5104	0.041	0.001281314714
22	5105	0.041	0.001011119576
22	5106	0.041	0.000740924438
22	5107	0.041	0.0004707293
22	5108	0.041	0.000200534162
22	5109	0.041	0.034835958991
22	5110	0.041	0.02969067869
22	5111	0.041	0.029421409135
22	5112	0.041	0.023787950747
22	5113	0.041	0.023514743616
22	5114	0.041	0.023241536485
22	5115	0.041	0.017888580612
22	5116	0.041	0.017610129776
22	5117	0.041	0.01733167894
22	5118	0.041	0.017053228104
22	5119	0.041	0.0140435528
22	5213	0.042	0.008226539774
22	5214	0.042	0.007947420268
22	5215	0.042	0.007668300762
22	5216	0.042	0.007389181256
22	5217	0.042	0.00711006175
22	5218	0.042	0.006830942244
22	5219	0.042	0.003959380162
22	5220	0.042	0.003691488473
22	5221	0.042	0.003423596784
22	5222	0.042	0.003155705095
22	5223	0.042	0.002887813406
22	5224	0.042	0.002619921717
22	5225	0.042	0.002352030028
22	5226	0.042	0.002161028971
22	5227	0.042	0.001882434768
22	5228	0.042	0.001603840565
22	5229	0.042	0.001325246362
22	5230	0.042	0.001046652159
22	5231	0.042	0.000768057956
22	5232	0.042	0.000489463753
22	5233	0.042	0.00021086955
22	5234	0.042	0.00099529064
22	5235	0.042	0.000730744128
22	5236	0.042	0.000466197616
22	5237	0.042	0.000201651104
22	5346	0.043	0.001930339024
22	5347	0.043	0.001660143886
22	5348	0.043	0.001389948748
22	5349	0.043	0.00111975361
22	5350	0.043	0.000849558472
22	5351	0.043	0.000579363334
22	5352	0.043	0.000309168196
22	5353	0.043	3.8973058e-005
22	5354	0.043	0.036567957208
22	5355	0.043	0.03115213958
22	5356	0.043	0.030882870025
22	5357	0.043	0.024968329354
22	5358	0.043	0.024695122223
22	5359	0.043	0.024421915092
22	5360	0.043	0.018774777268
22	5361	0.043	0.018496326432
22	5362	0.043	0.018217875596
22	5363	0.043	0.01793942476
22	5364	0.043	0.015773988328
22	5365	0.043	0.015504423856
22	5366	0.043	0.015234859384
22	5367	0.043	0.014965294912
22	5368	0.043	0.01469573044
22	5369	0.043	0.007551822738
22	5370	0.043	0.007272703232
22	5470	0.044	0.004084138339
22	5471	0.044	0.00381624665
22	5472	0.044	0.003548354961
22	5473	0.044	0.003280463272
22	5474	0.044	0.003012571583
22	5475	0.044	0.002744679894
22	5476	0.044	0.002476788205
22	5477	0.044	0.001932275347
22	5478	0.044	0.001653681144
22	5479	0.044	0.001375086941
22	5480	0.044	0.001096492738
22	5481	0.044	0.000817898535
22	5482	0.044	0.000539304332
22	5483	0.044	0.000260710129
22	5484	0.044	0.001937104592
22	5485	0.044	0.00167255808
22	5486	0.044	0.001408011568
22	5487	0.044	0.001143465056
22	5488	0.044	0.000878918544
22	5489	0.044	0.000614372032
22	5490	0.044	0.00034982552
22	5491	0.044	8.5279008e-005
22	5492	0.044	0.00076877792
22	5493	0.044	0.000498582782
22	5494	0.044	0.000228387644
22	5593	0.045	0.038299955425
22	5594	0.045	0.03261360047
22	5595	0.045	0.032344330915
22	5596	0.045	0.026148707961
22	5597	0.045	0.02587550083
22	5598	0.045	0.025602293699
22	5599	0.045	0.019660973924
22	5600	0.045	0.019382523088
22	5601	0.045	0.019104072252
22	5602	0.045	0.018825621416
22	5603	0.045	0.016426165968
22	5604	0.045	0.016156601496
22	5605	0.045	0.015887037024
22	5606	0.045	0.015617472552
22	5607	0.045	0.01534790808
22	5608	0.045	0.008993583726
22	5609	0.045	0.00871446422
22	5610	0.045	0.008435344714
22	5611	0.045	0.008156225208
22	5612	0.045	0.007877105702
22	5613	0.045	0.007597986196
22	5614	0.045	0.003208896516
22	5615	0.045	0.002941004827
22	5616	0.045	0.002673113138
22	5617	0.045	0.002405221449
22	5718	0.046	0.001982115926
22	5719	0.046	0.001703521723
22	5720	0.046	0.00142492752
22	5721	0.046	0.001146333317
22	5722	0.046	0.000867739114
22	5723	0.046	0.000589144911
22	5724	0.046	0.000310550708
22	5725	0.046	3.1956505e-005
22	5726	0.046	0.001820732496
22	5727	0.046	0.001556185984
22	5728	0.046	0.001291639472
22	5729	0.046	0.00102709296
22	5730	0.046	0.000762546448
22	5731	0.046	0.000497999936
22	5732	0.046	0.000233453424
22	5733	0.046	0.001958192506
22	5734	0.046	0.001687997368
22	5735	0.046	0.00141780223
22	5736	0.046	0.001147607092
22	5737	0.046	0.000877411954
22	5738	0.046	0.000607216816
22	5739	0.046	0.000337021678
22	5740	0.046	6.682654e-005
22	5741	0.046	0.039031953642
22	5742	0.046	0.03307506136
22	5843	0.047	0.027329086568
22	5844	0.047	0.027055879437
22	5845	0.047	0.026782672306
22	5846	0.047	0.02054717058
22	5847	0.047	0.020268719744
22	5848	0.047	0.019990268908
22	5849	0.047	0.019711818072
22	5850	0.047	0.017078343608
22	5851	0.047	0.016808779136
22	5852	0.047	0.016539214664
22	5853	0.047	0.016269650192
22	5854	0.047	0.01600008572
22	5855	0.047	0.00931886669
22	5856	0.047	0.009039747184
22	5857	0.047	0.008760627678
22	5858	0.047	0.008481508172
22	5859	0.047	0.008202388666
22	5860	0.047	0.00792326916
22	5861	0.047	0.00413732976
22	5862	0.047	0.003869438071
22	5863	0.047	0.003601546382
22	5864	0.047	0.003333654693
22	5865	0.047	0.003065763004
22	5866	0.047	0.002797871315
22	5867	0.047	0.002529979626
22	5970	0.048	0.001753362302
22	5971	0.048	0.001474768099
22	5972	0.048	0.001196173896
22	5973	0.048	0.000917579693
22	5974	0.048	0.00063898549
22	5975	0.048	0.000360391287
22	5976	0.048	8.1797084e-005
22	5977	0.048	0.001968906912
22	5978	0.048	0.0017043604
22	5979	0.048	0.001439813888
22	5980	0.048	0.001175267376
22	5981	0.048	0.000910720864
22	5982	0.048	0.000646174352
22	5983	0.048	0.00038162784
22	5984	0.048	0.000117081328
22	5985	0.048	0.001796631402
22	5986	0.048	0.001526436264
22	5987	0.048	0.001256241126
22	5988	0.048	0.000986045988
22	5989	0.048	0.00071585085
22	5990	0.048	0.000445655712
22	5991	0.048	0.000175460574
22	5992	0.048	0.040763951859
22	5993	0.048	0.034805791805
22	5994	0.048	0.03453652225
22	6089	0.049	0.028509465175
22	6090	0.049	0.028236258044
22	6091	0.049	0.027963050913
22	6092	0.049	0.021433367236
22	6093	0.049	0.0211549164
22	6094	0.049	0.020876465564
22	6095	0.049	0.020598014728
22	6096	0.049	0.017730521248
22	6097	0.049	0.017460956776
22	6098	0.049	0.017191392304
22	6099	0.049	0.016921827832
22	6100	0.049	0.01665226336
22	6101	0.049	0.009644149654
22	6102	0.049	0.009365030148
22	6103	0.049	0.009085910642
22	6104	0.049	0.008806791136
22	6105	0.049	0.00852767163
22	6106	0.049	0.008248552124
22	6107	0.049	0.004262087937
22	6108	0.049	0.003994196248
22	6109	0.049	0.003726304559
22	6110	0.049	0.00345841287
22	6111	0.049	0.003190521181
22	6112	0.049	0.002922629492
22	6113	0.049	0.002654737803
22	6220	0.05	0.001803202881
22	6221	0.05	0.001524608678
22	6222	0.05	0.001246014475
22	6223	0.05	0.000967420272
22	6224	0.05	0.000688826069
22	6225	0.05	0.000410231866
22	6226	0.05	0.000131637663
22	6227	0.05	0.001852534816
22	6228	0.05	0.001587988304
22	6229	0.05	0.001323441792
22	6230	0.05	0.00105889528
22	6231	0.05	0.000794348768
22	6232	0.05	0.000529802256
22	6233	0.05	0.000265255744
22	6234	0.05	7.09232e-007
22	6235	0.05	0.001905265436
22	6236	0.05	0.001635070298
22	6237	0.05	0.00136487516
22	6238	0.05	0.001094680022
22	6239	0.05	0.000824484884
22	6240	0.05	0.000554289746
22	6241	0.05	0.000284094608
22	6242	0.05	1.389947e-005
22	6243	0.05	0.042495950076
22	6244	0.05	0.036267252695
22	6343	0.051	0.029689843782
22	6344	0.051	0.029416636651
22	6345	0.051	0.02914342952
22	6346	0.051	0.022319563892
22	6347	0.051	0.022041113056
22	6348	0.051	0.02176266222
22	6349	0.051	0.021484211384
22	6350	0.051	0.018382698888
22	6351	0.051	0.018113134416
22	6352	0.051	0.017843569944
22	6353	0.051	0.017574005472
22	6354	0.051	0.017304441
22	6355	0.051	0.009969432618
22	6356	0.051	0.009690313112
22	6357	0.051	0.009411193606
22	6358	0.051	0.0091320741
22	6359	0.051	0.008852954594
22	6360	0.051	0.008573835088
22	6361	0.051	0.004386846114
22	6362	0.051	0.004118954425
22	6363	0.051	0.003851062736
22	6364	0.051	0.003583171047
22	6365	0.051	0.003315279358
22	6366	0.051	0.003047387669
22	6367	0.051	0.00277949598
22	6469	0.052	0.00185304346
22	6470	0.052	0.001574449257
22	6471	0.052	0.001295855054
22	6472	0.052	0.001017260851
22	6473	0.052	0.000738666648
22	6474	0.052	0.000460072445
22	6475	0.052	0.000181478242
22	6476	0.052	0.00173616272
22	6477	0.052	0.001471616208
22	6478	0.052	0.001207069696
22	6479	0.052	0.000942523184
22	6480	0.052	0.000677976672
22	6481	0.052	0.00041343016
22	6482	0.052	0.000148883648
22	6483	0.052	0.001743704332
22	6484	0.052	0.001473509194
22	6485	0.052	0.001203314056
22	6486	0.052	0.000933118918
22	6487	0.052	0.00066292378
22	6488	0.052	0.000392728642
22	6489	0.052	0.000122533504
22	6490	0.052	0.044227948293
22	6491	0.052	0.03799798314
22	6492	0.052	0.037728713585
22	6493	0.052	0.029870222389
22	6590	0.053	0.023205760548
22	6591	0.053	0.022927309712
22	6592	0.053	0.022648858876
22	6593	0.053	0.02237040804
22	6594	0.053	0.019034876528
22	6595	0.053	0.018765312056
22	6596	0.053	0.018495747584
22	6597	0.053	0.018226183112
22	6598	0.053	0.01795661864
22	6599	0.053	0.010294715582
22	6600	0.053	0.010015596076
22	6601	0.053	0.00973647657
22	6602	0.053	0.009457357064
22	6603	0.053	0.009178237558
22	6604	0.053	0.008899118052
22	6605	0.053	0.004511604291
22	6606	0.053	0.004243712602
22	6607	0.053	0.003975820913
22	6608	0.053	0.003707929224
22	6609	0.053	0.003440037535
22	6610	0.053	0.003172145846
22	6611	0.053	0.002904254157
22	6612	0.053	0.000902884039
22	6613	0.053	0.000624289836
22	6614	0.053	0.000345695633
22	6716	0.054	0.001884337136
22	6717	0.054	0.001619790624
22	6718	0.054	0.001355244112
22	6719	0.054	0.0010906976
22	6720	0.054	0.000826151088
22	6721	0.054	0.000561604576
22	6722	0.054	0.000297058064
22	6723	0.054	3.2511552e-005
22	6724	0.054	0.001852338366
22	6725	0.054	0.001582143228
22	6726	0.054	0.00131194809
22	6727	0.054	0.001041752952
22	6728	0.054	0.000771557814
22	6729	0.054	0.000501362676
22	6730	0.054	0.000231167538
22	6731	0.054	0.04595994651
22	6732	0.054	0.03945944403
22	6733	0.054	0.039190174475
22	6734	0.054	0.031597015258
22	6735	0.054	0.031323808127
22	6736	0.054	0.031050600996
22	6737	0.054	0.023091957204
22	6738	0.054	0.022813506368
22	6739	0.054	0.022535055532
22	6740	0.054	0.022256604696
22	6844	0.055	0.019687054168
22	6845	0.055	0.019417489696
22	6846	0.055	0.019147925224
22	6847	0.055	0.018878360752
22	6848	0.055	0.01860879628
22	6849	0.055	0.010619998546
22	6850	0.055	0.01034087904
22	6851	0.055	0.010061759534
22	6852	0.055	0.009782640028
22	6853	0.055	0.009503520522
22	6854	0.055	0.009224401016
22	6855	0.055	0.004636362468
22	6856	0.055	0.004368470779
22	6857	0.055	0.00410057909
22	6858	0.055	0.003832687401
22	6859	0.055	0.003564795712
22	6860	0.055	0.003296904023
22	6861	0.055	0.003029012334
22	6862	0.055	0.00206710143
22	6863	0.055	0.001788507227
22	6864	0.055	0.001509913024
22	6865	0.055	0.001231318821
22	6866	0.055	0.000952724618
22	6867	0.055	0.000674130415
22	6868	0.055	0.000395536212
22	6966	0.056	0.00176796504
22	6967	0.056	0.001503418528
22	6968	0.056	0.001238872016
22	6969	0.056	0.000974325504
22	6970	0.056	0.000709778992
22	6971	0.056	0.00044523248
22	6972	0.056	0.000180685968
22	6973	0.056	0.0019609724
22	6974	0.056	0.001690777262
22	6975	0.056	0.001420582124
22	6976	0.056	0.001150386986
22	6977	0.056	0.000880191848
22	6978	0.056	0.00060999671
22	6979	0.056	0.000339801572
22	6980	0.056	6.9606434e-005
22	6981	0.056	0.047691944727
22	6982	0.056	0.04092090492
22	6983	0.056	0.040651635365
22	6984	0.056	0.032777393865
22	6985	0.056	0.032504186734
22	6986	0.056	0.032230979603
22	6987	0.056	0.02397815386
22	6988	0.056	0.023699703024
22	6989	0.056	0.023421252188
22	6990	0.056	0.023142801352
22	7088	0.057	0.020339231808
22	7089	0.057	0.020069667336
22	7090	0.057	0.019800102864
22	7091	0.057	0.019530538392
22	7092	0.057	0.01926097392
22	7093	0.057	0.01094528151
22	7094	0.057	0.010666162004
22	7095	0.057	0.010387042498
22	7096	0.057	0.010107922992
22	7097	0.057	0.009828803486
22	7098	0.057	0.00954968398
22	7099	0.057	0.004761120645
22	7100	0.057	0.004493228956
22	7101	0.057	0.004225337267
22	7102	0.057	0.003957445578
22	7103	0.057	0.003689553889
22	7104	0.057	0.0034216622
22	7105	0.057	0.003153770511
22	7106	0.057	0.002116942009
22	7107	0.057	0.001838347806
22	7108	0.057	0.001559753603
22	7109	0.057	0.0012811594
22	7110	0.057	0.001002565197
22	7111	0.057	0.000723970994
22	7112	0.057	0.000445376791
22	7218	0.058	0.001916139456
22	7219	0.058	0.001651592944
22	7220	0.058	0.001387046432
22	7221	0.058	0.00112249992
22	7222	0.058	0.000857953408
22	7223	0.058	0.000593406896
22	7224	0.058	0.000328860384
22	7225	0.058	6.4313872e-005
22	7226	0.058	0.001799411296
22	7227	0.058	0.001529216158
22	7228	0.058	0.00125902102
22	7229	0.058	0.000988825882
22	7230	0.058	0.000718630744
22	7231	0.058	0.000448435606
22	7232	0.058	0.000178240468
22	7233	0.058	0.049423942944
22	7234	0.058	0.04238236581
22	7235	0.058	0.042113096255
22	7236	0.058	0.033957772472
22	7237	0.058	0.033684565341
22	7238	0.058	0.03341135821
22	7239	0.058	0.024864350516
22	7240	0.058	0.02458589968
22	7241	0.058	0.024307448844
22	7242	0.058	0.024028998008
22	7340	0.059	0.020991409448
22	7341	0.059	0.020721844976
22	7342	0.059	0.020452280504
22	7343	0.059	0.020182716032
22	7344	0.059	0.01991315156
22	7345	0.059	0.011270564474
22	7346	0.059	0.010991444968
22	7347	0.059	0.010712325462
22	7348	0.059	0.010433205956
22	7349	0.059	0.01015408645
22	7350	0.059	0.009874966944
22	7351	0.059	0.004885878822
22	7352	0.059	0.004617987133
22	7353	0.059	0.004350095444
22	7354	0.059	0.004082203755
22	7355	0.059	0.003814312066
22	7356	0.059	0.003546420377
22	7357	0.059	0.003278528688
22	7358	0.059	0.002166782588
22	7359	0.059	0.001888188385
22	7360	0.059	0.001609594182
22	7361	0.059	0.001330999979
22	7362	0.059	0.001052405776
22	7363	0.059	0.000773811573
22	7364	0.059	0.00049521737
22	7462	0.06	0.00179976736
22	7463	0.06	0.001535220848
22	7464	0.06	0.001270674336
22	7465	0.06	0.001006127824
22	7466	0.06	0.000741581312
22	7467	0.06	0.0004770348
22	7468	0.06	0.000212488288
22	7469	0.06	0.00190804533
22	7470	0.06	0.001637850192
22	7471	0.06	0.001367655054
22	7472	0.06	0.001097459916
22	7473	0.06	0.000827264778
22	7474	0.06	0.00055706964
22	7475	0.06	0.000286874502
22	7476	0.06	1.6679364e-005
22	7477	0.06	0.051155941161
22	7478	0.06	0.0438438267
22	7479	0.06	0.043574557145
22	7480	0.06	0.035138151079
22	7481	0.06	0.034864943948
22	7482	0.06	0.034591736817
22	7483	0.06	0.025750547172
22	7484	0.06	0.025472096336
22	7485	0.06	0.0251936455
22	7486	0.06	0.024915194664
22	7588	0.061	0.021643587088
22	7589	0.061	0.021374022616
22	7590	0.061	0.021104458144
22	7591	0.061	0.020834893672
22	7592	0.061	0.0205653292
22	7593	0.061	0.011595847438
22	7594	0.061	0.011316727932
22	7595	0.061	0.011037608426
22	7596	0.061	0.01075848892
22	7597	0.061	0.010479369414
22	7598	0.061	0.010200249908
22	7599	0.061	0.005010636999
22	7600	0.061	0.00474274531
22	7601	0.061	0.004474853621
22	7602	0.061	0.004206961932
22	7603	0.061	0.003939070243
22	7604	0.061	0.003671178554
22	7605	0.061	0.003403286865
22	7606	0.061	0.002216623167
22	7607	0.061	0.001938028964
22	7608	0.061	0.001659434761
22	7609	0.061	0.001380840558
22	7610	0.061	0.001102246355
22	7611	0.061	0.000823652152
22	7612	0.061	0.000545057949
22	7716	0.062	0.001947941776
22	7717	0.062	0.001683395264
22	7718	0.062	0.001418848752
22	7719	0.062	0.00115430224
22	7720	0.062	0.000889755728
22	7721	0.062	0.000625209216
22	7722	0.062	0.000360662704
22	7723	0.062	9.6116192e-005
22	7724	0.062	0.001746484226
22	7725	0.062	0.001476289088
22	7726	0.062	0.00120609395
22	7727	0.062	0.000935898812
22	7728	0.062	0.000665703674
22	7729	0.062	0.000395508536
22	7730	0.062	0.000125313398
22	7731	0.062	0.052887939378
22	7732	0.062	0.04530528759
22	7733	0.062	0.045036018035
22	7734	0.062	0.036318529686
22	7735	0.062	0.036045322555
22	7736	0.062	0.035772115424
22	7737	0.062	0.026636743828
22	7738	0.062	0.026358292992
22	7739	0.062	0.026079842156
22	7740	0.062	0.02580139132
22	7840	0.063	0.022295764728
22	7841	0.063	0.022026200256
22	7842	0.063	0.021756635784
22	7843	0.063	0.021487071312
22	7844	0.063	0.02121750684
22	7845	0.063	0.011921130402
22	7846	0.063	0.011642010896
22	7847	0.063	0.01136289139
22	7848	0.063	0.011083771884
22	7849	0.063	0.010804652378
22	7850	0.063	0.010525532872
22	7851	0.063	0.005135395176
22	7852	0.063	0.004867503487
22	7853	0.063	0.004599611798
22	7854	0.063	0.004331720109
22	7855	0.063	0.00406382842
22	7856	0.063	0.003795936731
22	7857	0.063	0.003528045042
22	7858	0.063	0.002266463746
22	7859	0.063	0.001987869543
22	7860	0.063	0.00170927534
22	7861	0.063	0.001430681137
22	7862	0.063	0.001152086934
22	7863	0.063	0.000873492731
22	7864	0.063	0.000594898528
22	7961	0.064	0.00183156968
22	7962	0.064	0.001567023168
22	7963	0.064	0.001302476656
22	7964	0.064	0.001037930144
22	7965	0.064	0.000773383632
22	7966	0.064	0.00050883712
22	7967	0.064	0.000244290608
22	7968	0.064	0.00185511826
22	7969	0.064	0.001584923122
22	7970	0.064	0.001314727984
22	7971	0.064	0.001044532846
22	7972	0.064	0.000774337708
22	7973	0.064	0.00050414257
22	7974	0.064	0.000233947432
22	7975	0.064	0.054619937595
22	7976	0.064	0.04676674848
22	7977	0.064	0.046497478925
22	7978	0.064	0.037498908293
22	7979	0.064	0.037225701162
22	7980	0.064	0.036952494031
22	7981	0.064	0.027522940484
22	7982	0.064	0.027244489648
22	7983	0.064	0.026966038812
22	7984	0.064	0.026687587976
22	7985	0.064	0.021947942368
22	8087	0.065	0.012246413366
22	8088	0.065	0.01196729386
22	8089	0.065	0.011688174354
22	8090	0.065	0.011409054848
22	8091	0.065	0.011129935342
22	8092	0.065	0.010850815836
22	8093	0.065	0.005260153353
22	8094	0.065	0.004992261664
22	8095	0.065	0.004724369975
22	8096	0.065	0.004456478286
22	8097	0.065	0.004188586597
22	8098	0.065	0.003920694908
22	8099	0.065	0.003652803219
22	8100	0.065	0.002316304325
22	8101	0.065	0.002037710122
22	8102	0.065	0.001759115919
22	8103	0.065	0.001480521716
22	8104	0.065	0.001201927513
22	8105	0.065	0.00092333331
22	8106	0.065	0.000644739107
22	8107	0.065	0.000366144904
22	8108	0.065	0.000979744096
22	8109	0.065	0.000715197584
22	8110	0.065	0.000450651072
22	8111	0.065	0.00018610456
22	8216	0.066	0.001963752294
22	8217	0.066	0.001693557156
22	8218	0.066	0.001423362018
22	8219	0.066	0.00115316688
22	8220	0.066	0.000882971742
22	8221	0.066	0.000612776604
22	8222	0.066	0.000342581466
22	8223	0.066	7.2386328e-005
22	8224	0.066	0.056351935812
22	8225	0.066	0.04822820937
22	8226	0.066	0.047958939815
22	8227	0.066	0.0386792869
22	8228	0.066	0.038406079769
22	8229	0.066	0.038132872638
22	8230	0.066	0.02840913714
22	8231	0.066	0.028130686304
22	8232	0.066	0.027852235468
22	8233	0.066	0.027573784632
22	8234	0.066	0.023678377896
22	8235	0.066	0.023408813424
22	8236	0.066	0.023139248952
22	8237	0.066	0.02286968448
22	8238	0.066	0.022600120008
22	8239	0.066	0.01157169633
22	8240	0.066	0.011292576824
22	8338	0.067	0.00538491153
22	8339	0.067	0.005117019841
22	8340	0.067	0.004849128152
22	8341	0.067	0.004581236463
22	8342	0.067	0.004313344774
22	8343	0.067	0.004045453085
22	8344	0.067	0.003777561396
22	8345	0.067	0.002087550701
22	8346	0.067	0.001808956498
22	8347	0.067	0.001530362295
22	8348	0.067	0.001251768092
22	8349	0.067	0.000973173889
22	8350	0.067	0.000694579686
22	8351	0.067	0.000415985483
22	8352	0.067	0.00013739128
22	8353	0.067	0.001921558048
22	8354	0.067	0.001657011536
22	8355	0.067	0.001392465024
22	8356	0.067	0.001127918512
22	8357	0.067	0.000863372
22	8358	0.067	0.000598825488
22	8359	0.067	0.000334278976
22	8360	0.067	6.9732464e-005
22	8361	0.067	0.00080219119
22	8362	0.067	0.000531996052
22	8465	0.068	0.058083934029
22	8466	0.068	0.04968967026
22	8467	0.068	0.049420400705
22	8468	0.068	0.039859665507
22	8469	0.068	0.039586458376
22	8470	0.068	0.039313251245
22	8471	0.068	0.029295333796
22	8472	0.068	0.02901688296
22	8473	0.068	0.028738432124
22	8474	0.068	0.028459981288
22	8475	0.068	0.024330555536
22	8476	0.068	0.024060991064
22	8477	0.068	0.023791426592
22	8478	0.068	0.02352186212
22	8479	0.068	0.023252297648
22	8480	0.068	0.013013457318
22	8481	0.068	0.012734337812
22	8482	0.068	0.012455218306
22	8483	0.068	0.0121760988
22	8484	0.068	0.011896979294
22	8485	0.068	0.011617859788
22	8486	0.068	0.004509669707
22	8487	0.068	0.004241778018
22	8488	0.068	0.003973886329
22	8489	0.068	0.00370599464
22	8588	0.069	0.001858797077
22	8589	0.069	0.001580202874
22	8590	0.069	0.001301608671
22	8591	0.069	0.001023014468
22	8592	0.069	0.000744420265
22	8593	0.069	0.000465826062
22	8594	0.069	0.000187231859
22	8595	0.069	0.001805185952
22	8596	0.069	0.00154063944
22	8597	0.069	0.001276092928
22	8598	0.069	0.001011546416
22	8599	0.069	0.000746999904
22	8600	0.069	0.000482453392
22	8601	0.069	0.00021790688
22	8602	0.069	0.002261800914
22	8603	0.069	0.001991605776
22	8604	0.069	0.001721410638
22	8605	0.069	0.0014512155
22	8606	0.069	0.001181020362
22	8607	0.069	0.000910825224
22	8608	0.069	0.000640630086
22	8609	0.069	0.000370434948
22	8610	0.069	0.00010023981
22	8611	0.069	0.058815932246
22	8612	0.069	0.05015113115
22	8715	0.07	0.041040044114
22	8716	0.07	0.040766836983
22	8717	0.07	0.040493629852
22	8718	0.07	0.030181530452
22	8719	0.07	0.029903079616
22	8720	0.07	0.02962462878
22	8721	0.07	0.029346177944
22	8722	0.07	0.024982733176
22	8723	0.07	0.024713168704
22	8724	0.07	0.024443604232
22	8725	0.07	0.02417403976
22	8726	0.07	0.023904475288
22	8727	0.07	0.013338740282
22	8728	0.07	0.013059620776
22	8729	0.07	0.01278050127
22	8730	0.07	0.012501381764
22	8731	0.07	0.012222262258
22	8732	0.07	0.011943142752
22	8733	0.07	0.005438102951
22	8734	0.07	0.005170211262
22	8735	0.07	0.004902319573
22	8736	0.07	0.004634427884
22	8737	0.07	0.004366536195
22	8738	0.07	0.004098644506
22	8739	0.07	0.003830752817
22	8836	0.071	0.001908637656
22	8837	0.071	0.001630043453
22	8838	0.071	0.00135144925
22	8839	0.071	0.001072855047
22	8840	0.071	0.000794260844
22	8841	0.071	0.000515666641
22	8842	0.071	0.000237072438
22	8843	0.071	0.001953360368
22	8844	0.071	0.001688813856
22	8845	0.071	0.001424267344
22	8846	0.071	0.001159720832
22	8847	0.071	0.00089517432
22	8848	0.071	0.000630627808
22	8849	0.071	0.000366081296
22	8850	0.071	0.000101534784
22	8851	0.071	0.001830044672
22	8852	0.071	0.001559849534
22	8853	0.071	0.001289654396
22	8854	0.071	0.001019459258
22	8855	0.071	0.00074926412
22	8856	0.071	0.000479068982
22	8857	0.071	0.000208873844
22	8858	0.071	0.060547930463
22	8859	0.071	0.051881861595
22	8860	0.071	0.05161259204
22	8963	0.072	0.042220422721
22	8964	0.072	0.04194721559
22	8965	0.072	0.041674008459
22	8966	0.072	0.031067727108
22	8967	0.072	0.030789276272
22	8968	0.072	0.030510825436
22	8969	0.072	0.0302323746
22	8970	0.072	0.025634910816
22	8971	0.072	0.025365346344
22	8972	0.072	0.025095781872
22	8973	0.072	0.0248262174
22	8974	0.072	0.024556652928
22	8975	0.072	0.013664023246
22	8976	0.072	0.01338490374
22	8977	0.072	0.013105784234
22	8978	0.072	0.012826664728
22	8979	0.072	0.012547545222
22	8980	0.072	0.012268425716
22	8981	0.072	0.005562861128
22	8982	0.072	0.005294969439
22	8983	0.072	0.00502707775
22	8984	0.072	0.004759186061
22	8985	0.072	0.004491294372
22	8986	0.072	0.004223402683
22	8987	0.072	0.003955510994
22	9090	0.073	0.001958478235
22	9091	0.073	0.001679884032
22	9092	0.073	0.001401289829
22	9093	0.073	0.001122695626
22	9094	0.073	0.000844101423
22	9095	0.073	0.00056550722
22	9096	0.073	0.000286913017
22	9097	0.073	8.318814e-006
22	9098	0.073	0.001836988272
22	9099	0.073	0.00157244176
22	9100	0.073	0.001307895248
22	9101	0.073	0.001043348736
22	9102	0.073	0.000778802224
22	9103	0.073	0.000514255712
22	9104	0.073	0.0002497092
22	9105	0.073	0.001938678706
22	9106	0.073	0.001668483568
22	9107	0.073	0.00139828843
22	9108	0.073	0.001128093292
22	9109	0.073	0.000857898154
22	9110	0.073	0.000587703016
22	9111	0.073	0.000317507878
22	9112	0.073	4.731274e-005
22	9113	0.073	0.06227992868
22	9114	0.073	0.053343322485
22	9211	0.074	0.043400801328
22	9212	0.074	0.043127594197
22	9213	0.074	0.042854387066
22	9214	0.074	0.031953923764
22	9215	0.074	0.031675472928
22	9216	0.074	0.031397022092
22	9217	0.074	0.031118571256
22	9218	0.074	0.026287088456
22	9219	0.074	0.026017523984
22	9220	0.074	0.025747959512
22	9221	0.074	0.02547839504
22	9222	0.074	0.025208830568
22	9223	0.074	0.01398930621
22	9224	0.074	0.013710186704
22	9225	0.074	0.013431067198
22	9226	0.074	0.013151947692
22	9227	0.074	0.012872828186
22	9228	0.074	0.01259370868
22	9229	0.074	0.005687619305
22	9230	0.074	0.005419727616
22	9231	0.074	0.005151835927
22	9232	0.074	0.004883944238
22	9233	0.074	0.004616052549
22	9234	0.074	0.00434816086
22	9235	0.074	0.004080269171
22	9336	0.075	0.001729724611
22	9337	0.075	0.001451130408
22	9338	0.075	0.001172536205
22	9339	0.075	0.000893942002
22	9340	0.075	0.000615347799
22	9341	0.075	0.000336753596
22	9342	0.075	5.8159393e-005
22	9343	0.075	0.001985162688
22	9344	0.075	0.001720616176
22	9345	0.075	0.001456069664
22	9346	0.075	0.001191523152
22	9347	0.075	0.00092697664
22	9348	0.075	0.000662430128
22	9349	0.075	0.000397883616
22	9350	0.075	0.000133337104
22	9351	0.075	0.001777117602
22	9352	0.075	0.001506922464
22	9353	0.075	0.001236727326
22	9354	0.075	0.000966532188
22	9355	0.075	0.00069633705
22	9356	0.075	0.000426141912
22	9357	0.075	0.000155946774
22	9358	0.075	0.064011926897
22	9359	0.075	0.05507405293
22	9360	0.075	0.054804783375
22	9461	0.076	0.044581179935
22	9462	0.076	0.044307972804
22	9463	0.076	0.044034765673
22	9464	0.076	0.03284012042
22	9465	0.076	0.032561669584
22	9466	0.076	0.032283218748
22	9467	0.076	0.032004767912
22	9468	0.076	0.026939266096
22	9469	0.076	0.026669701624
22	9470	0.076	0.026400137152
22	9471	0.076	0.02613057268
22	9472	0.076	0.025861008208
22	9473	0.076	0.014314589174
22	9474	0.076	0.014035469668
22	9475	0.076	0.013756350162
22	9476	0.076	0.013477230656
22	9477	0.076	0.01319811115
22	9478	0.076	0.012918991644
22	9479	0.076	0.005812377482
22	9480	0.076	0.005544485793
22	9481	0.076	0.005276594104
22	9482	0.076	0.005008702415
22	9483	0.076	0.004740810726
22	9484	0.076	0.004472919037
22	9485	0.076	0.004205027348
22	9584	0.077	0.00177956519
22	9585	0.077	0.001500970987
22	9586	0.077	0.001222376784
22	9587	0.077	0.000943782581
22	9588	0.077	0.000665188378
22	9589	0.077	0.000386594175
22	9590	0.077	0.000107999972
22	9591	0.077	0.001868790592
22	9592	0.077	0.00160424408
22	9593	0.077	0.001339697568
22	9594	0.077	0.001075151056
22	9595	0.077	0.000810604544
22	9596	0.077	0.000546058032
22	9597	0.077	0.00028151152
22	9598	0.077	1.6965008e-005
22	9599	0.077	0.001885751636
22	9600	0.077	0.001615556498
22	9601	0.077	0.00134536136
22	9602	0.077	0.001075166222
22	9603	0.077	0.000804971084
22	9604	0.077	0.000534775946
22	9605	0.077	0.000264580808
22	9606	0.077	0.065743925114
22	9607	0.077	0.05653551382
22	9608	0.077	0.056266244265
22	9711	0.078	0.045761558542
22	9712	0.078	0.045488351411
22	9713	0.078	0.04521514428
22	9714	0.078	0.033726317076
22	9715	0.078	0.03344786624
22	9716	0.078	0.033169415404
22	9717	0.078	0.032890964568
22	9718	0.078	0.027591443736
22	9719	0.078	0.027321879264
22	9720	0.078	0.027052314792
22	9721	0.078	0.02678275032
22	9722	0.078	0.026513185848
22	9723	0.078	0.014639872138
22	9724	0.078	0.014360752632
22	9725	0.078	0.014081633126
22	9726	0.078	0.01380251362
22	9727	0.078	0.013523394114
22	9728	0.078	0.013244274608
22	9729	0.078	0.005937135659
22	9730	0.078	0.00566924397
22	9731	0.078	0.005401352281
22	9732	0.078	0.005133460592
22	9733	0.078	0.004865568903
22	9734	0.078	0.004597677214
22	9735	0.078	0.004329785525
22	9836	0.079	0.001829405769
22	9837	0.079	0.001550811566
22	9838	0.079	0.001272217363
22	9839	0.079	0.00099362316
22	9840	0.079	0.000715028957
22	9841	0.079	0.000436434754
22	9842	0.079	0.000157840551
22	9843	0.079	0.001752418496
22	9844	0.079	0.001487871984
22	9845	0.079	0.001223325472
22	9846	0.079	0.00095877896
22	9847	0.079	0.000694232448
22	9848	0.079	0.000429685936
22	9849	0.079	0.000165139424
22	9850	0.079	0.00199438567
22	9851	0.079	0.001724190532
22	9852	0.079	0.001453995394
22	9853	0.079	0.001183800256
22	9854	0.079	0.000913605118
22	9855	0.079	0.00064340998
22	9856	0.079	0.000373214842
22	9857	0.079	0.000103019704
22	9858	0.079	0.067475923331
22	9859	0.079	0.05799697471
22	9860	0.079	0.057727705155
22	9961	0.08	0.046941937149
22	9962	0.08	0.046668730018
22	9963	0.08	0.046395522887
22	9964	0.08	0.034612513732
22	9965	0.08	0.034334062896
22	9966	0.08	0.03405561206
22	9967	0.08	0.033777161224
22	9968	0.08	0.028243621376
22	9969	0.08	0.027974056904
22	9970	0.08	0.027704492432
22	9971	0.08	0.02743492796
22	9972	0.08	0.027165363488
22	9973	0.08	0.014965155102
22	9974	0.08	0.014686035596
22	9975	0.08	0.01440691609
22	9976	0.08	0.014127796584
22	9977	0.08	0.013848677078
22	9978	0.08	0.013569557572
22	9979	0.08	0.006061893836
22	9980	0.08	0.005794002147
22	9981	0.08	0.005526110458
22	9982	0.08	0.005258218769
22	9983	0.08	0.00499032708
22	9984	0.08	0.004722435391
22	9985	0.08	0.004454543702

