version 2
run _10UsersSetup-0-20201115-19:50:14-12212
attr configname _10UsersSetup
attr datetime 20201115-19:50:14
attr experiment _10UsersSetup
attr inifile omnetpp.ini
attr iterationvars ""
attr iterationvarsf ""
attr measurement ""
attr network Network
attr processid 12212
attr repetition 0
attr replication #0
attr resultdir results
attr runnumber 0
attr seedset 0
param **.algorithm "\"pf\""
param **.usersCount 10
param **.channelsCount 15
param **.scheduler.generateInterval 10s
param **.user[0].gen.generateInterval 1s
param **.user[1].gen.generateInterval 2s
param **.user[2].gen.generateInterval 1s
param **.user[3].gen.generateInterval 3s
param **.user[4].gen.generateInterval 1s
param **.user[5].gen.generateInterval 4s
param **.user[6].gen.generateInterval 2s
param **.user[7].gen.generateInterval 2s
param **.user[8].gen.generateInterval 6s
param **.user[9].gen.generateInterval 8s
param **.user[0].radioLinkQuality 5
param **.user[1].radioLinkQuality 3
param **.user[2].radioLinkQuality 1
param **.user[3].radioLinkQuality 8
param **.user[4].radioLinkQuality 10
param **.user[5].radioLinkQuality 3
param **.user[6].radioLinkQuality 4
param **.user[7].radioLinkQuality 2
param **.user[8].radioLinkQuality 2
param **.user[9].radioLinkQuality 7
param **.user[0].gen.startingMessage 0
param **.user[1].gen.startingMessage 100
param **.user[2].gen.startingMessage 200
param **.user[3].gen.startingMessage 300
param **.user[4].gen.startingMessage 400
param **.user[5].gen.startingMessage 500
param **.user[6].gen.startingMessage 600
param **.user[7].gen.startingMessage 700
param **.user[8].gen.startingMessage 800
param **.user[9].gen.startingMessage 900

vector 0 Network.user[0].queue "" ETV
vector 1 Network.user[1].queue "" ETV
vector 2 Network.user[2].queue "" ETV
vector 3 Network.user[3].queue "" ETV
vector 4 Network.user[4].queue "" ETV
vector 5 Network.user[5].queue "" ETV
vector 6 Network.user[6].queue "" ETV
vector 7 Network.user[7].queue "" ETV
vector 8 Network.user[8].queue "" ETV
vector 9 Network.user[9].queue "" ETV
vector 10 Network.sink lifetime:vector ETV
attr interpolationmode none
attr title "lifetime of arrived jobs, vector"
attr unit s
0	100	10	9
0	250	20	14
0	398	30	24
0	548	40	34
0	693	50	29
0	842	60	39
0	1001	70	49
0	1152	80	59
0	1312	90	69
0	1469	100	79
0	1643	110	59
0	1810	120	69
0	1959	130	79
0	2114	140	89
0	2287	150	99
0	2446	160	109
0	2606	170	89
0	2767	180	99
0	2936	190	109
0	3083	200	119
0	3252	210	129
0	3420	220	139
0	3579	230	119
0	3747	240	129
0	3907	250	139
0	4061	260	149
0	4221	270	159
0	4395	280	169
0	4555	290	179
1	101	10	4
1	251	20	9
1	399	30	14
1	549	40	19
1	694	50	24
1	843	60	29
1	1002	70	34
1	1153	80	18
1	1313	90	23
1	1470	100	28
1	1644	110	33
1	1811	120	38
1	1960	130	43
1	2115	140	48
1	2288	150	53
1	2447	160	58
1	2607	170	63
1	2768	180	68
1	2937	190	73
1	3084	200	78
1	3253	210	44
1	3421	220	49
1	3580	230	54
1	3748	240	59
1	3908	250	64
1	4062	260	69
1	4222	270	74
1	4396	280	79
1	4556	290	84
2	102	10	9
2	252	20	19
2	400	30	29
2	550	40	39
2	695	50	49
2	844	60	59
2	1003	70	69
2	1154	80	79
2	1314	90	89
2	1471	100	99
2	1645	110	109
2	1812	120	119
2	1961	130	129
2	2116	140	139
2	2289	150	149
2	2448	160	159
2	2608	170	169
2	2769	180	179
2	2938	190	189
2	3085	200	199
2	3254	210	209
2	3422	220	219
2	3581	230	229
2	3749	240	239
2	3909	250	249
2	4063	260	259
2	4223	270	269
2	4397	280	279
2	4557	290	289
3	103	10	3
3	253	20	3
3	401	30	6
3	551	40	4
3	696	50	7
3	845	60	10
3	1004	70	4
3	1155	80	7
3	1315	90	10
3	1472	100	14
3	1646	110	3
3	1813	120	6
3	1962	130	10
3	2117	140	13
3	2290	150	3
3	2449	160	7
3	2609	170	10
3	2770	180	13
3	2939	190	17
3	3086	200	3
3	3255	210	6
3	3423	220	10
3	3582	230	13
3	3750	240	3
3	3910	250	7
3	4064	260	10
3	4224	270	13
3	4398	280	4
3	4558	290	7
4	104	10	9
4	254	20	10
4	402	30	10
4	552	40	10
4	697	50	20
4	846	60	10
4	1005	70	20
4	1156	80	30
4	1316	90	10
4	1473	100	20
4	1647	110	30
4	1814	120	10
4	1963	130	20
4	2118	140	30
4	2291	150	10
4	2450	160	20
4	2610	170	30
4	2771	180	40
4	2940	190	10
4	3087	200	20
4	3256	210	30
4	3424	220	10
4	3583	230	20
4	3751	240	30
4	3911	250	10
4	4065	260	20
4	4225	270	30
4	4399	280	10
4	4559	290	20
5	105	10	2
5	255	20	4
5	403	30	7
5	553	40	9
5	698	50	12
5	847	60	14
5	1006	70	3
5	1157	80	5
5	1317	90	8
5	1474	100	10
5	1648	110	13
5	1815	120	15
5	1964	130	18
5	2119	140	20
5	2292	150	23
5	2451	160	2
5	2611	170	5
5	2772	180	7
5	2941	190	10
5	3088	200	12
5	3257	210	15
5	3425	220	17
5	3584	230	20
5	3752	240	22
5	3912	250	25
5	4066	260	2
5	4226	270	5
5	4400	280	7
5	4560	290	10
6	106	10	4
6	256	20	9
6	404	30	6
6	554	40	11
6	699	50	16
6	848	60	21
6	1007	70	26
6	1158	80	31
6	1318	90	36
6	1475	100	13
6	1649	110	18
6	1816	120	23
6	1965	130	28
6	2120	140	33
6	2293	150	38
6	2452	160	43
6	2612	170	48
6	2773	180	21
6	2942	190	26
6	3089	200	31
6	3258	210	36
6	3426	220	41
6	3585	230	46
6	3753	240	27
6	3913	250	32
6	4067	260	37
6	4227	270	42
6	4401	280	47
6	4561	290	52
7	107	10	4
7	257	20	9
7	405	30	14
7	555	40	19
7	700	50	24
7	849	60	29
7	1008	70	34
7	1159	80	39
7	1319	90	44
7	1476	100	49
7	1650	110	54
7	1817	120	59
7	1966	130	64
7	2121	140	43
7	2294	150	48
7	2453	160	53
7	2613	170	58
7	2774	180	63
7	2943	190	68
7	3090	200	73
7	3259	210	78
7	3427	220	83
7	3586	230	88
7	3754	240	93
7	3914	250	98
7	4068	260	103
7	4228	270	108
7	4402	280	113
7	4562	290	88
8	108	10	1
8	258	20	3
8	406	30	4
8	556	40	6
8	701	50	8
8	850	60	9
8	1009	70	11
8	1160	80	13
8	1320	90	14
8	1477	100	16
8	1651	110	18
8	1818	120	19
8	1967	130	2
8	2122	140	4
8	2295	150	5
8	2454	160	7
8	2614	170	9
8	2775	180	10
8	2944	190	12
8	3091	200	14
8	3260	210	15
8	3428	220	17
8	3587	230	19
8	3755	240	20
8	3915	250	22
8	4069	260	24
8	4229	270	1
8	4403	280	3
8	4563	290	5
9	109	10	1
9	259	20	1
9	407	30	2
9	557	40	1
9	702	50	3
9	851	60	4
9	1010	70	1
9	1161	80	2
9	1321	90	4
9	1478	100	5
9	1652	110	6
9	1819	120	1
9	1968	130	3
9	2123	140	4
9	2296	150	5
9	2455	160	1
9	2615	170	3
9	2776	180	4
9	2945	190	5
9	3092	200	6
9	3261	210	8
9	3429	220	1
9	3588	230	2
9	3756	240	3
9	3916	250	5
9	4070	260	6
9	4230	270	1
9	4404	280	2
9	4564	290	4
10	130	10	9
10	131	10	8
10	132	10	7
10	133	10	6
10	134	10	5
10	135	10	4
10	136	10	3
10	137	10	2
10	138	10	1
10	139	10	7
10	140	10	4
10	141	10	1
10	142	10	2
10	143	10	9
10	144	10	8
10	145	10	7
10	146	10	6
10	147	10	5
10	279	20	10
10	280	20	9
10	281	20	8
10	282	20	7
10	283	20	6
10	284	20	5
10	285	20	4
10	286	20	3
10	287	20	2
10	288	20	1
10	289	20	18
10	290	20	16
10	291	20	14
10	292	20	12
10	293	20	10
10	294	20	8
10	295	20	6
10	296	20	4
10	429	30	18
10	430	30	15
10	431	30	12
10	432	30	9
10	433	30	6
10	434	30	3
10	435	30	14
10	436	30	6
10	437	30	10
10	438	30	9
10	439	30	8
10	440	30	7
10	441	30	6
10	442	30	5
10	443	30	4
10	444	30	3
10	445	30	2
10	446	30	1
10	577	40	34
10	578	40	33
10	579	40	32
10	580	40	31
10	581	40	30
10	582	40	29
10	583	40	28
10	584	40	27
10	585	40	26
10	586	40	25
10	587	40	24
10	588	40	23
10	589	40	22
10	590	40	21
10	591	40	20
10	720	50	20
10	721	50	19
10	722	50	18
10	723	50	17
10	724	50	16
10	725	50	15
10	726	50	14
10	727	50	13
10	728	50	12
10	729	50	11
10	730	50	10
10	731	50	9
10	732	50	8
10	733	50	7
10	734	50	6
10	735	50	5
10	736	50	4
10	737	50	3
10	738	50	2
10	739	50	1
10	874	60	30
10	875	60	27
10	876	60	24
10	877	60	21
10	878	60	18
10	879	60	15
10	880	60	12
10	881	60	9
10	882	60	6
10	883	60	3
10	884	60	28
10	885	60	20
10	886	60	12
10	887	60	4
10	888	60	56
10	889	60	52
10	890	60	48
10	891	60	44
10	892	60	40
10	893	60	36
10	894	60	32
10	895	60	28
10	896	60	24
10	897	60	20
10	898	60	16
10	899	60	12
10	900	60	8
10	901	60	4
10	1028	70	68
10	1029	70	66
10	1030	70	64
10	1031	70	62
10	1032	70	60
10	1033	70	58
10	1034	70	56
10	1035	70	54
10	1036	70	52
10	1037	70	50
10	1038	70	48
10	1039	70	46
10	1040	70	44
10	1041	70	42
10	1042	70	40
10	1043	70	38
10	1044	70	36
10	1045	70	34
10	1046	70	32
10	1047	70	30
10	1048	70	28
10	1181	80	30
10	1182	80	29
10	1183	80	28
10	1184	80	27
10	1185	80	26
10	1186	80	25
10	1187	80	24
10	1188	80	23
10	1189	80	22
10	1190	80	21
10	1191	80	20
10	1192	80	19
10	1193	80	18
10	1194	80	17
10	1195	80	16
10	1196	80	15
10	1197	80	14
10	1198	80	13
10	1199	80	12
10	1200	80	11
10	1201	80	10
10	1202	80	9
10	1203	80	8
10	1204	80	7
10	1205	80	6
10	1206	80	5
10	1207	80	4
10	1208	80	3
10	1209	80	2
10	1210	80	1
10	1341	90	72
10	1342	90	70
10	1343	90	68
10	1344	90	66
10	1345	90	64
10	1346	90	62
10	1347	90	60
10	1348	90	58
10	1349	90	56
10	1350	90	54
10	1351	90	52
10	1352	90	50
10	1353	90	48
10	1354	90	46
10	1355	90	44
10	1356	90	42
10	1357	90	40
10	1358	90	38
10	1359	90	36
10	1360	90	34
10	1361	90	32
10	1362	90	30
10	1363	90	28
10	1364	90	26
10	1365	90	24
10	1366	90	22
10	1367	90	20
10	1368	90	18
10	1498	100	40
10	1499	100	37
10	1500	100	34
10	1501	100	31
10	1502	100	28
10	1503	100	25
10	1504	100	22
10	1505	100	19
10	1506	100	16
10	1507	100	13
10	1508	100	10
10	1509	100	7
10	1510	100	4
10	1511	100	1
10	1512	100	79
10	1513	100	78
10	1514	100	77
10	1515	100	76
10	1516	100	75
10	1517	100	74
10	1518	100	73
10	1519	100	72
10	1520	100	71
10	1521	100	70
10	1522	100	69
10	1523	100	68
10	1524	100	67
10	1525	100	66
10	1526	100	65
10	1527	100	64
10	1528	100	63
10	1529	100	62
10	1530	100	61
10	1531	100	60
10	1532	100	59
10	1533	100	58
10	1534	100	57
10	1535	100	56
10	1536	100	55
10	1537	100	54
10	1538	100	53
10	1539	100	52
10	1540	100	51
10	1541	100	50
10	1671	110	46
10	1672	110	38
10	1673	110	30
10	1674	110	22
10	1675	110	14
10	1676	110	6
10	1677	110	30
10	1678	110	29
10	1679	110	28
10	1680	110	27
10	1681	110	26
10	1682	110	25
10	1683	110	24
10	1684	110	23
10	1685	110	22
10	1686	110	21
10	1687	110	20
10	1688	110	19
10	1689	110	18
10	1690	110	17
10	1691	110	16
10	1692	110	15
10	1693	110	14
10	1694	110	13
10	1695	110	12
10	1696	110	11
10	1697	110	10
10	1698	110	9
10	1699	110	8
10	1700	110	7
10	1701	110	6
10	1702	110	5
10	1703	110	4
10	1704	110	3
10	1705	110	2
10	1706	110	1
10	1841	120	114
10	1842	120	108
10	1843	120	102
10	1844	120	96
10	1845	120	90
10	1846	120	84
10	1847	120	78
10	1848	120	72
10	1849	120	66
10	1850	120	60
10	1851	120	54
10	1852	120	48
10	1853	120	42
10	1854	120	36
10	1855	120	30
10	1856	120	24
10	1857	120	18
10	1858	120	12
10	1859	120	6
10	1986	130	128
10	1987	130	126
10	1988	130	124
10	1989	130	122
10	1990	130	120
10	1991	130	118
10	1992	130	116
10	1993	130	114
10	1994	130	112
10	1995	130	110
10	1996	130	108
10	1997	130	106
10	1998	130	104
10	1999	130	102
10	2000	130	100
10	2001	130	98
10	2002	130	96
10	2003	130	94
10	2004	130	92
10	2005	130	90
10	2006	130	88
10	2007	130	86
10	2008	130	84
10	2009	130	82
10	2010	130	80
10	2011	130	78
10	2143	140	38
10	2144	140	35
10	2145	140	32
10	2146	140	29
10	2147	140	26
10	2148	140	23
10	2149	140	20
10	2150	140	17
10	2151	140	14
10	2152	140	11
10	2153	140	8
10	2154	140	5
10	2155	140	2
10	2156	140	30
10	2157	140	29
10	2158	140	28
10	2159	140	27
10	2160	140	26
10	2161	140	25
10	2162	140	24
10	2163	140	23
10	2164	140	22
10	2165	140	21
10	2166	140	20
10	2167	140	19
10	2168	140	18
10	2169	140	17
10	2170	140	16
10	2171	140	15
10	2172	140	14
10	2173	140	13
10	2174	140	12
10	2175	140	11
10	2176	140	10
10	2177	140	9
10	2178	140	8
10	2179	140	7
10	2180	140	6
10	2181	140	5
10	2182	140	4
10	2183	140	3
10	2184	140	2
10	2185	140	1
10	2317	150	38
10	2318	150	30
10	2319	150	22
10	2320	150	14
10	2321	150	6
10	2322	150	90
10	2323	150	86
10	2324	150	82
10	2325	150	78
10	2326	150	74
10	2327	150	70
10	2328	150	66
10	2329	150	62
10	2330	150	58
10	2331	150	54
10	2332	150	50
10	2333	150	46
10	2334	150	42
10	2335	150	38
10	2336	150	34
10	2337	150	30
10	2338	150	26
10	2339	150	22
10	2340	150	18
10	2341	150	14
10	2342	150	10
10	2343	150	6
10	2344	150	2
10	2475	160	109
10	2476	160	108
10	2477	160	107
10	2478	160	106
10	2479	160	105
10	2480	160	104
10	2481	160	103
10	2482	160	102
10	2483	160	101
10	2484	160	100
10	2485	160	99
10	2486	160	98
10	2487	160	97
10	2488	160	96
10	2489	160	95
10	2490	160	94
10	2491	160	93
10	2492	160	92
10	2493	160	91
10	2494	160	90
10	2495	160	89
10	2496	160	88
10	2497	160	87
10	2498	160	86
10	2499	160	85
10	2500	160	84
10	2501	160	83
10	2502	160	82
10	2503	160	81
10	2504	160	80
10	2633	170	96
10	2634	170	94
10	2635	170	92
10	2636	170	90
10	2637	170	88
10	2638	170	86
10	2639	170	84
10	2640	170	82
10	2641	170	80
10	2642	170	78
10	2643	170	76
10	2644	170	74
10	2645	170	72
10	2646	170	70
10	2647	170	68
10	2648	170	66
10	2649	170	64
10	2650	170	62
10	2651	170	60
10	2652	170	58
10	2653	170	56
10	2654	170	54
10	2655	170	52
10	2656	170	50
10	2657	170	48
10	2658	170	46
10	2659	170	44
10	2660	170	42
10	2661	170	40
10	2662	170	38
10	2663	170	36
10	2664	170	34
10	2797	180	40
10	2798	180	39
10	2799	180	38
10	2800	180	37
10	2801	180	36
10	2802	180	35
10	2803	180	34
10	2804	180	33
10	2805	180	32
10	2806	180	31
10	2807	180	30
10	2808	180	29
10	2809	180	28
10	2810	180	27
10	2811	180	26
10	2812	180	25
10	2813	180	24
10	2814	180	23
10	2815	180	22
10	2816	180	21
10	2817	180	20
10	2818	180	19
10	2819	180	18
10	2820	180	17
10	2821	180	16
10	2822	180	15
10	2823	180	14
10	2824	180	13
10	2825	180	12
10	2826	180	11
10	2827	180	10
10	2828	180	9
10	2829	180	8
10	2830	180	7
10	2831	180	6
10	2832	180	5
10	2833	180	4
10	2834	180	3
10	2835	180	2
10	2836	180	1
10	2963	190	49
10	2964	190	46
10	2965	190	43
10	2966	190	40
10	2967	190	37
10	2968	190	34
10	2969	190	31
10	2970	190	28
10	2971	190	25
10	2972	190	22
10	2973	190	19
10	2974	190	16
10	2975	190	13
10	2976	190	10
10	2977	190	7
10	2978	190	4
10	2979	190	1
10	3112	200	156
10	3113	200	154
10	3114	200	152
10	3115	200	150
10	3116	200	148
10	3117	200	146
10	3118	200	144
10	3119	200	142
10	3120	200	140
10	3121	200	138
10	3122	200	136
10	3123	200	134
10	3124	200	132
10	3125	200	130
10	3126	200	128
10	3127	200	126
10	3128	200	124
10	3129	200	122
10	3130	200	120
10	3131	200	118
10	3132	200	116
10	3133	200	114
10	3134	200	112
10	3135	200	110
10	3136	200	108
10	3137	200	106
10	3138	200	104
10	3139	200	102
10	3140	200	100
10	3141	200	98
10	3142	200	96
10	3143	200	94
10	3144	200	92
10	3145	200	90
10	3146	200	88
10	3147	200	86
10	3148	200	84
10	3149	200	82
10	3150	200	80
10	3282	210	58
10	3283	210	50
10	3284	210	42
10	3285	210	34
10	3286	210	26
10	3287	210	18
10	3288	210	10
10	3289	210	2
10	3290	210	30
10	3291	210	29
10	3292	210	28
10	3293	210	27
10	3294	210	26
10	3295	210	25
10	3296	210	24
10	3297	210	23
10	3298	210	22
10	3299	210	21
10	3300	210	20
10	3301	210	19
10	3302	210	18
10	3303	210	17
10	3304	210	16
10	3305	210	15
10	3306	210	14
10	3307	210	13
10	3308	210	12
10	3309	210	11
10	3310	210	10
10	3311	210	9
10	3312	210	8
10	3313	210	7
10	3314	210	6
10	3315	210	5
10	3316	210	4
10	3317	210	3
10	3318	210	2
10	3319	210	1
10	3448	220	139
10	3449	220	138
10	3450	220	137
10	3451	220	136
10	3452	220	135
10	3453	220	134
10	3454	220	133
10	3455	220	132
10	3456	220	131
10	3457	220	130
10	3458	220	129
10	3459	220	128
10	3460	220	127
10	3461	220	126
10	3462	220	125
10	3463	220	124
10	3464	220	123
10	3465	220	122
10	3466	220	121
10	3467	220	120
10	3468	220	119
10	3469	220	118
10	3470	220	117
10	3471	220	116
10	3472	220	115
10	3473	220	114
10	3474	220	113
10	3475	220	112
10	3476	220	111
10	3477	220	110
10	3607	230	38
10	3608	230	35
10	3609	230	32
10	3610	230	29
10	3611	230	26
10	3612	230	23
10	3613	230	20
10	3614	230	17
10	3615	230	14
10	3616	230	11
10	3617	230	8
10	3618	230	5
10	3619	230	2
10	3620	230	92
10	3621	230	90
10	3622	230	88
10	3623	230	86
10	3624	230	84
10	3625	230	82
10	3626	230	80
10	3627	230	78
10	3628	230	76
10	3629	230	74
10	3630	230	72
10	3631	230	70
10	3632	230	68
10	3633	230	66
10	3634	230	64
10	3635	230	62
10	3636	230	60
10	3637	230	58
10	3638	230	56
10	3639	230	54
10	3640	230	52
10	3641	230	50
10	3642	230	48
10	3643	230	46
10	3778	240	30
10	3779	240	29
10	3780	240	28
10	3781	240	27
10	3782	240	26
10	3783	240	25
10	3784	240	24
10	3785	240	23
10	3786	240	22
10	3787	240	21
10	3788	240	20
10	3789	240	19
10	3790	240	18
10	3791	240	17
10	3792	240	16
10	3793	240	15
10	3794	240	14
10	3795	240	13
10	3796	240	12
10	3797	240	11
10	3798	240	10
10	3799	240	9
10	3800	240	8
10	3801	240	7
10	3802	240	6
10	3803	240	5
10	3804	240	4
10	3805	240	3
10	3806	240	2
10	3807	240	1
10	3934	250	98
10	3935	250	94
10	3936	250	90
10	3937	250	86
10	3938	250	82
10	3939	250	78
10	3940	250	74
10	3941	250	70
10	3942	250	66
10	3943	250	62
10	3944	250	58
10	3945	250	54
10	3946	250	50
10	3947	250	46
10	3948	250	42
10	3949	250	38
10	3950	250	34
10	3951	250	30
10	3952	250	26
10	3953	250	22
10	3954	250	18
10	3955	250	14
10	3956	250	10
10	3957	250	6
10	3958	250	2
10	4090	260	44
10	4091	260	36
10	4092	260	28
10	4093	260	20
10	4094	260	12
10	4095	260	4
10	4096	260	140
10	4097	260	134
10	4098	260	128
10	4099	260	122
10	4100	260	116
10	4101	260	110
10	4102	260	104
10	4103	260	98
10	4104	260	92
10	4105	260	86
10	4106	260	80
10	4107	260	74
10	4108	260	68
10	4109	260	62
10	4110	260	56
10	4111	260	50
10	4112	260	44
10	4113	260	38
10	4114	260	32
10	4115	260	26
10	4116	260	20
10	4117	260	14
10	4118	260	8
10	4119	260	2
10	4251	270	39
10	4252	270	36
10	4253	270	33
10	4254	270	30
10	4255	270	27
10	4256	270	24
10	4257	270	21
10	4258	270	18
10	4259	270	15
10	4260	270	12
10	4261	270	9
10	4262	270	6
10	4263	270	3
10	4264	270	30
10	4265	270	29
10	4266	270	28
10	4267	270	27
10	4268	270	26
10	4269	270	25
10	4270	270	24
10	4271	270	23
10	4272	270	22
10	4273	270	21
10	4274	270	20
10	4275	270	19
10	4276	270	18
10	4277	270	17
10	4278	270	16
10	4279	270	15
10	4280	270	14
10	4281	270	13
10	4282	270	12
10	4283	270	11
10	4284	270	10
10	4285	270	9
10	4286	270	8
10	4287	270	7
10	4288	270	6
10	4289	270	5
10	4290	270	4
10	4291	270	3
10	4292	270	2
10	4293	270	1
10	4424	280	226
10	4425	280	224
10	4426	280	222
10	4427	280	220
10	4428	280	218
10	4429	280	216
10	4430	280	214
10	4431	280	212
10	4432	280	210
10	4433	280	208
10	4434	280	206
10	4435	280	204
10	4436	280	202
10	4437	280	200
10	4438	280	198
10	4439	280	196
10	4440	280	194
10	4441	280	192
10	4442	280	190
10	4443	280	188
10	4444	280	186
10	4445	280	184
10	4446	280	182
10	4447	280	180
10	4448	280	178
10	4449	280	176
10	4450	280	174
10	4451	280	172
10	4452	280	170
10	4453	280	168
10	4582	290	179
10	4583	290	178
10	4584	290	177
10	4585	290	176
10	4586	290	175
10	4587	290	174
10	4588	290	173
10	4589	290	172
10	4590	290	171
10	4591	290	170
10	4592	290	169
10	4593	290	168
10	4594	290	167
10	4595	290	166
10	4596	290	165
10	4597	290	164
10	4598	290	163
10	4599	290	162
10	4600	290	161
10	4601	290	160
10	4602	290	159
10	4603	290	158
10	4604	290	157
10	4605	290	156
10	4606	290	155
10	4607	290	154
10	4608	290	153
10	4609	290	152
10	4610	290	151
10	4611	290	150
10	4612	290	149
10	4613	290	148
10	4614	290	147
10	4615	290	146
10	4616	290	145

