version 2
run _3UsersSetupWRR-0-20201129-20:31:24-24108
attr configname _3UsersSetupWRR
attr datetime 20201129-20:31:24
attr experiment _3UsersSetupWRR
attr inifile omnetpp.ini
attr iterationvars ""
attr iterationvarsf ""
attr measurement ""
attr network Network
attr processid 24108
attr repetition 0
attr replication #0
attr resultdir results
attr runnumber 0
attr seedset 0
param **.algorithm "\"wrr\""
param **.usersCount 3
param **.channelsCount 30
param **.networkLoad 0.9
param **.scheduler.generateInterval 1ms
param **.gen.generateInterval "triang(0.9ms, 1.0ms, 1.1ms)"
param **.user[0].radioLinkQuality 1
param **.user[1].radioLinkQuality 2
param **.user[2].radioLinkQuality 3
param **.user[0].gen.startingMessage 0
param **.user[1].gen.startingMessage 100
param **.user[2].gen.startingMessage 200

vector 0 Network.user[0].queue "Queue before scheduler's run." ETV
vector 1 Network.user[1].queue "Queue before scheduler's run." ETV
vector 2 Network.user[2].queue "Queue before scheduler's run." ETV
vector 3 Network.scheduler "Scheduler free channels" ETV
vector 4 Network.scheduler "Total users' queues lengths" ETV
vector 5 Network.user[0].queue "Queue after scheduler's run." ETV
vector 6 Network.user[1].queue "Queue after scheduler's run." ETV
vector 7 Network.user[2].queue "Queue after scheduler's run." ETV
vector 8 Network.sink lifetime:vector ETV
attr interpolationmode none
attr title "lifetime of arrived jobs, vector"
attr unit s
0	50	0.001	8
0	150	0.002	9
0	255	0.003	9
0	360	0.004	9
0	463	0.005	9
0	567	0.006	9
0	672	0.007	9
0	777	0.008	9
0	882	0.009	9
0	985	0.01	9
0	1089	0.011	9
0	1192	0.012	9
0	1295	0.013	9
0	1398	0.014	9
0	1502	0.015	9
0	1607	0.016	9
0	1712	0.017	9
0	1817	0.018	9
0	1920	0.019	9
0	2024	0.02	9
0	2129	0.021	9
0	2234	0.022	9
0	2335	0.023	8
0	2434	0.024	9
0	2538	0.025	9
0	2643	0.026	9
0	2748	0.027	9
0	2851	0.028	9
0	2955	0.029	9
0	3060	0.03	9
0	3165	0.031	9
0	3270	0.032	9
0	3373	0.033	9
0	3477	0.034	9
0	3580	0.035	9
0	3683	0.036	9
0	3788	0.037	9
0	3891	0.038	9
0	3995	0.039	9
0	4100	0.04	9
0	4205	0.041	9
0	4308	0.042	9
0	4412	0.043	9
0	4517	0.044	9
0	4620	0.045	8
0	4721	0.046	9
0	4822	0.047	9
0	4926	0.048	9
0	5031	0.049	9
0	5136	0.05	9
0	5241	0.051	9
0	5344	0.052	9
0	5448	0.053	9
0	5553	0.054	9
0	5658	0.055	9
0	5761	0.056	9
0	5865	0.057	9
0	5968	0.058	9
0	6071	0.059	9
0	6176	0.06	9
0	6279	0.061	9
0	6383	0.062	9
0	6488	0.063	9
0	6593	0.064	9
0	6696	0.065	9
0	6800	0.066	9
0	6903	0.067	8
0	7006	0.068	9
0	7109	0.069	9
0	7210	0.07	9
0	7314	0.071	9
0	7419	0.072	9
0	7524	0.073	9
0	7629	0.074	9
0	7732	0.075	9
0	7836	0.076	9
0	7941	0.077	9
0	8046	0.078	9
0	8149	0.079	9
0	8253	0.08	9
0	8356	0.081	9
0	8459	0.082	9
0	8564	0.083	9
0	8667	0.084	9
0	8771	0.085	9
0	8876	0.086	9
0	8981	0.087	9
0	9086	0.088	9
0	9189	0.089	9
0	9291	0.09	8
0	9394	0.091	9
0	9497	0.092	9
0	9598	0.093	9
0	9702	0.094	9
0	9807	0.095	9
0	9912	0.096	9
1	51	0.001	8
1	151	0.002	9
1	256	0.003	9
1	361	0.004	9
1	464	0.005	9
1	568	0.006	9
1	673	0.007	9
1	778	0.008	9
1	883	0.009	9
1	986	0.01	9
1	1090	0.011	9
1	1193	0.012	8
1	1296	0.013	9
1	1399	0.014	9
1	1503	0.015	9
1	1608	0.016	9
1	1713	0.017	9
1	1818	0.018	9
1	1921	0.019	9
1	2025	0.02	9
1	2130	0.021	9
1	2235	0.022	9
1	2336	0.023	8
1	2435	0.024	9
1	2539	0.025	9
1	2644	0.026	9
1	2749	0.027	9
1	2852	0.028	9
1	2956	0.029	9
1	3061	0.03	9
1	3166	0.031	9
1	3271	0.032	9
1	3374	0.033	9
1	3478	0.034	9
1	3581	0.035	8
1	3684	0.036	9
1	3789	0.037	9
1	3892	0.038	9
1	3996	0.039	9
1	4101	0.04	9
1	4206	0.041	9
1	4309	0.042	9
1	4413	0.043	9
1	4518	0.044	9
1	4621	0.045	9
1	4722	0.046	8
1	4823	0.047	9
1	4927	0.048	9
1	5032	0.049	9
1	5137	0.05	9
1	5242	0.051	9
1	5345	0.052	9
1	5449	0.053	9
1	5554	0.054	9
1	5659	0.055	9
1	5762	0.056	9
1	5866	0.057	9
1	5969	0.058	8
1	6072	0.059	9
1	6177	0.06	9
1	6280	0.061	9
1	6384	0.062	9
1	6489	0.063	9
1	6594	0.064	9
1	6697	0.065	9
1	6801	0.066	9
1	6904	0.067	9
1	7007	0.068	9
1	7110	0.069	8
1	7211	0.07	9
1	7315	0.071	9
1	7420	0.072	9
1	7525	0.073	9
1	7630	0.074	9
1	7733	0.075	9
1	7837	0.076	9
1	7942	0.077	9
1	8047	0.078	9
1	8150	0.079	9
1	8254	0.08	9
1	8357	0.081	8
1	8460	0.082	9
1	8565	0.083	9
1	8668	0.084	9
1	8772	0.085	9
1	8877	0.086	9
1	8982	0.087	9
1	9087	0.088	9
1	9190	0.089	9
1	9292	0.09	9
1	9395	0.091	9
1	9498	0.092	8
1	9599	0.093	9
1	9703	0.094	9
1	9808	0.095	9
1	9913	0.096	9
2	52	0.001	8
2	152	0.002	9
2	257	0.003	9
2	362	0.004	9
2	465	0.005	8
2	569	0.006	9
2	674	0.007	9
2	779	0.008	9
2	884	0.009	9
2	987	0.01	8
2	1091	0.011	9
2	1194	0.012	9
2	1297	0.013	9
2	1400	0.014	8
2	1504	0.015	9
2	1609	0.016	9
2	1714	0.017	9
2	1819	0.018	9
2	1922	0.019	8
2	2026	0.02	9
2	2131	0.021	9
2	2236	0.022	9
2	2337	0.023	9
2	2436	0.024	8
2	2540	0.025	9
2	2645	0.026	9
2	2750	0.027	9
2	2853	0.028	8
2	2957	0.029	9
2	3062	0.03	9
2	3167	0.031	9
2	3272	0.032	9
2	3375	0.033	8
2	3479	0.034	9
2	3582	0.035	9
2	3685	0.036	9
2	3790	0.037	9
2	3893	0.038	8
2	3997	0.039	9
2	4102	0.04	9
2	4207	0.041	9
2	4310	0.042	8
2	4414	0.043	9
2	4519	0.044	9
2	4622	0.045	9
2	4723	0.046	9
2	4824	0.047	8
2	4928	0.048	9
2	5033	0.049	9
2	5138	0.05	9
2	5243	0.051	9
2	5346	0.052	8
2	5450	0.053	9
2	5555	0.054	9
2	5660	0.055	9
2	5763	0.056	8
2	5867	0.057	9
2	5970	0.058	9
2	6073	0.059	9
2	6178	0.06	9
2	6281	0.061	8
2	6385	0.062	9
2	6490	0.063	9
2	6595	0.064	9
2	6698	0.065	8
2	6802	0.066	9
2	6905	0.067	9
2	7008	0.068	9
2	7111	0.069	9
2	7212	0.07	8
2	7316	0.071	9
2	7421	0.072	9
2	7526	0.073	9
2	7631	0.074	9
2	7734	0.075	8
2	7838	0.076	9
2	7943	0.077	9
2	8048	0.078	9
2	8151	0.079	8
2	8255	0.08	9
2	8358	0.081	9
2	8461	0.082	9
2	8566	0.083	9
2	8669	0.084	8
2	8773	0.085	9
2	8878	0.086	9
2	8983	0.087	9
2	9088	0.088	9
2	9191	0.089	8
2	9293	0.09	9
2	9396	0.091	9
2	9499	0.092	9
2	9600	0.093	8
2	9704	0.094	9
2	9809	0.095	9
2	9914	0.096	9
3	55	0.001	6
3	155	0.002	3
3	260	0.003	3
3	365	0.004	3
3	468	0.005	4
3	572	0.006	3
3	677	0.007	3
3	782	0.008	3
3	887	0.009	3
3	990	0.01	4
3	1094	0.011	3
3	1197	0.012	4
3	1300	0.013	3
3	1403	0.014	4
3	1507	0.015	3
3	1612	0.016	3
3	1717	0.017	3
3	1822	0.018	3
3	1925	0.019	4
3	2029	0.02	3
3	2134	0.021	3
3	2239	0.022	3
3	2340	0.023	5
3	2439	0.024	4
3	2543	0.025	3
3	2648	0.026	3
3	2753	0.027	3
3	2856	0.028	4
3	2960	0.029	3
3	3065	0.03	3
3	3170	0.031	3
3	3275	0.032	3
3	3378	0.033	4
3	3482	0.034	3
3	3585	0.035	4
3	3688	0.036	3
3	3793	0.037	3
3	3896	0.038	4
3	4000	0.039	3
3	4105	0.04	3
3	4210	0.041	3
3	4313	0.042	4
3	4417	0.043	3
3	4522	0.044	3
3	4625	0.045	4
3	4726	0.046	4
3	4827	0.047	4
3	4931	0.048	3
3	5036	0.049	3
3	5141	0.05	3
3	5246	0.051	3
3	5349	0.052	4
3	5453	0.053	3
3	5558	0.054	3
3	5663	0.055	3
3	5766	0.056	4
3	5870	0.057	3
3	5973	0.058	4
3	6076	0.059	3
3	6181	0.06	3
3	6284	0.061	4
3	6388	0.062	3
3	6493	0.063	3
3	6598	0.064	3
3	6701	0.065	4
3	6805	0.066	3
3	6908	0.067	4
3	7011	0.068	3
3	7114	0.069	4
3	7215	0.07	4
3	7319	0.071	3
3	7424	0.072	3
3	7529	0.073	3
3	7634	0.074	3
3	7737	0.075	4
3	7841	0.076	3
3	7946	0.077	3
3	8051	0.078	3
3	8154	0.079	4
3	8258	0.08	3
3	8361	0.081	4
3	8464	0.082	3
3	8569	0.083	3
3	8672	0.084	4
3	8776	0.085	3
3	8881	0.086	3
3	8986	0.087	3
3	9091	0.088	3
3	9194	0.089	4
3	9296	0.09	4
3	9399	0.091	3
3	9502	0.092	4
3	9603	0.093	4
3	9707	0.094	3
3	9812	0.095	3
3	9917	0.096	3
4	55	0.001	0
4	155	0.002	0
4	260	0.003	0
4	365	0.004	0
4	468	0.005	0
4	572	0.006	0
4	677	0.007	0
4	782	0.008	0
4	887	0.009	0
4	990	0.01	0
4	1094	0.011	0
4	1197	0.012	0
4	1300	0.013	0
4	1403	0.014	0
4	1507	0.015	0
4	1612	0.016	0
4	1717	0.017	0
4	1822	0.018	0
4	1925	0.019	0
4	2029	0.02	0
4	2134	0.021	0
4	2239	0.022	0
4	2340	0.023	0
4	2439	0.024	0
4	2543	0.025	0
4	2648	0.026	0
4	2753	0.027	0
4	2856	0.028	0
4	2960	0.029	0
4	3065	0.03	0
4	3170	0.031	0
4	3275	0.032	0
4	3378	0.033	0
4	3482	0.034	0
4	3585	0.035	0
4	3688	0.036	0
4	3793	0.037	0
4	3896	0.038	0
4	4000	0.039	0
4	4105	0.04	0
4	4210	0.041	0
4	4313	0.042	0
4	4417	0.043	0
4	4522	0.044	0
4	4625	0.045	0
4	4726	0.046	0
4	4827	0.047	0
4	4931	0.048	0
4	5036	0.049	0
4	5141	0.05	0
4	5246	0.051	0
4	5349	0.052	0
4	5453	0.053	0
4	5558	0.054	0
4	5663	0.055	0
4	5766	0.056	0
4	5870	0.057	0
4	5973	0.058	0
4	6076	0.059	0
4	6181	0.06	0
4	6284	0.061	0
4	6388	0.062	0
4	6493	0.063	0
4	6598	0.064	0
4	6701	0.065	0
4	6805	0.066	0
4	6908	0.067	0
4	7011	0.068	0
4	7114	0.069	0
4	7215	0.07	0
4	7319	0.071	0
4	7424	0.072	0
4	7529	0.073	0
4	7634	0.074	0
4	7737	0.075	0
4	7841	0.076	0
4	7946	0.077	0
4	8051	0.078	0
4	8154	0.079	0
4	8258	0.08	0
4	8361	0.081	0
4	8464	0.082	0
4	8569	0.083	0
4	8672	0.084	0
4	8776	0.085	0
4	8881	0.086	0
4	8986	0.087	0
4	9091	0.088	0
4	9194	0.089	0
4	9296	0.09	0
4	9399	0.091	0
4	9502	0.092	0
4	9603	0.093	0
4	9707	0.094	0
4	9812	0.095	0
4	9917	0.096	0
5	56	0.001	7
5	59	0.001	6
5	62	0.001	5
5	65	0.001	4
5	67	0.001	3
5	68	0.001	2
5	69	0.001	1
5	70	0.001	0
5	158	0.002	8
5	161	0.002	7
5	164	0.002	6
5	166	0.002	5
5	168	0.002	4
5	169	0.002	3
5	170	0.002	2
5	171	0.002	1
5	172	0.002	0
5	263	0.003	8
5	266	0.003	7
5	269	0.003	6
5	271	0.003	5
5	273	0.003	4
5	274	0.003	3
5	275	0.003	2
5	276	0.003	1
5	277	0.003	0
5	368	0.004	8
5	371	0.004	7
5	374	0.004	6
5	376	0.004	5
5	378	0.004	4
5	379	0.004	3
5	380	0.004	2
5	381	0.004	1
5	382	0.004	0
5	471	0.005	8
5	474	0.005	7
5	477	0.005	6
5	479	0.005	5
5	481	0.005	4
5	482	0.005	3
5	483	0.005	2
5	484	0.005	1
5	485	0.005	0
5	575	0.006	8
5	578	0.006	7
5	581	0.006	6
5	583	0.006	5
5	585	0.006	4
5	586	0.006	3
5	587	0.006	2
5	588	0.006	1
5	589	0.006	0
5	680	0.007	8
5	683	0.007	7
5	686	0.007	6
5	688	0.007	5
5	690	0.007	4
5	691	0.007	3
5	692	0.007	2
5	693	0.007	1
5	694	0.007	0
5	785	0.008	8
5	788	0.008	7
5	791	0.008	6
5	793	0.008	5
5	795	0.008	4
5	796	0.008	3
5	797	0.008	2
5	798	0.008	1
5	799	0.008	0
5	890	0.009	8
5	893	0.009	7
5	896	0.009	6
5	898	0.009	5
5	900	0.009	4
5	901	0.009	3
5	902	0.009	2
5	903	0.009	1
5	904	0.009	0
5	993	0.01	8
5	996	0.01	7
5	999	0.01	6
5	1001	0.01	5
5	1003	0.01	4
5	1004	0.01	3
5	1005	0.01	2
5	1006	0.01	1
5	1007	0.01	0
5	1097	0.011	8
5	1100	0.011	7
5	1103	0.011	6
5	1105	0.011	5
5	1107	0.011	4
5	1108	0.011	3
5	1109	0.011	2
5	1110	0.011	1
5	1111	0.011	0
5	1200	0.012	8
5	1203	0.012	7
5	1206	0.012	6
5	1208	0.012	5
5	1209	0.012	4
5	1210	0.012	3
5	1211	0.012	2
5	1212	0.012	1
5	1213	0.012	0
5	1303	0.013	8
5	1306	0.013	7
5	1309	0.013	6
5	1311	0.013	5
5	1313	0.013	4
5	1314	0.013	3
5	1315	0.013	2
5	1316	0.013	1
5	1317	0.013	0
5	1406	0.014	8
5	1409	0.014	7
5	1412	0.014	6
5	1414	0.014	5
5	1416	0.014	4
5	1417	0.014	3
5	1418	0.014	2
5	1419	0.014	1
5	1420	0.014	0
5	1510	0.015	8
5	1513	0.015	7
5	1516	0.015	6
5	1518	0.015	5
5	1520	0.015	4
5	1521	0.015	3
5	1522	0.015	2
5	1523	0.015	1
5	1524	0.015	0
5	1615	0.016	8
5	1618	0.016	7
5	1621	0.016	6
5	1623	0.016	5
5	1625	0.016	4
5	1626	0.016	3
5	1627	0.016	2
5	1628	0.016	1
5	1629	0.016	0
5	1720	0.017	8
5	1723	0.017	7
5	1726	0.017	6
5	1728	0.017	5
5	1730	0.017	4
5	1731	0.017	3
5	1732	0.017	2
5	1733	0.017	1
5	1734	0.017	0
5	1825	0.018	8
5	1828	0.018	7
5	1831	0.018	6
5	1833	0.018	5
5	1835	0.018	4
5	1836	0.018	3
5	1837	0.018	2
5	1838	0.018	1
5	1839	0.018	0
5	1928	0.019	8
5	1931	0.019	7
5	1934	0.019	6
5	1936	0.019	5
5	1938	0.019	4
5	1939	0.019	3
5	1940	0.019	2
5	1941	0.019	1
5	1942	0.019	0
5	2032	0.02	8
5	2035	0.02	7
5	2038	0.02	6
5	2040	0.02	5
5	2042	0.02	4
5	2043	0.02	3
5	2044	0.02	2
5	2045	0.02	1
5	2046	0.02	0
5	2137	0.021	8
5	2140	0.021	7
5	2143	0.021	6
5	2145	0.021	5
5	2147	0.021	4
5	2148	0.021	3
5	2149	0.021	2
5	2150	0.021	1
5	2151	0.021	0
5	2242	0.022	8
5	2245	0.022	7
5	2248	0.022	6
5	2250	0.022	5
5	2252	0.022	4
5	2253	0.022	3
5	2254	0.022	2
5	2255	0.022	1
5	2256	0.022	0
5	2343	0.023	7
5	2346	0.023	6
5	2349	0.023	5
5	2351	0.023	4
5	2352	0.023	3
5	2353	0.023	2
5	2354	0.023	1
5	2355	0.023	0
5	2442	0.024	8
5	2445	0.024	7
5	2448	0.024	6
5	2450	0.024	5
5	2452	0.024	4
5	2453	0.024	3
5	2454	0.024	2
5	2455	0.024	1
5	2456	0.024	0
5	2546	0.025	8
5	2549	0.025	7
5	2552	0.025	6
5	2554	0.025	5
5	2556	0.025	4
5	2557	0.025	3
5	2558	0.025	2
5	2559	0.025	1
5	2560	0.025	0
5	2651	0.026	8
5	2654	0.026	7
5	2657	0.026	6
5	2659	0.026	5
5	2661	0.026	4
5	2662	0.026	3
5	2663	0.026	2
5	2664	0.026	1
5	2665	0.026	0
5	2756	0.027	8
5	2759	0.027	7
5	2762	0.027	6
5	2764	0.027	5
5	2766	0.027	4
5	2767	0.027	3
5	2768	0.027	2
5	2769	0.027	1
5	2770	0.027	0
5	2859	0.028	8
5	2862	0.028	7
5	2865	0.028	6
5	2867	0.028	5
5	2869	0.028	4
5	2870	0.028	3
5	2871	0.028	2
5	2872	0.028	1
5	2873	0.028	0
5	2963	0.029	8
5	2966	0.029	7
5	2969	0.029	6
5	2971	0.029	5
5	2973	0.029	4
5	2974	0.029	3
5	2975	0.029	2
5	2976	0.029	1
5	2977	0.029	0
5	3068	0.03	8
5	3071	0.03	7
5	3074	0.03	6
5	3076	0.03	5
5	3078	0.03	4
5	3079	0.03	3
5	3080	0.03	2
5	3081	0.03	1
5	3082	0.03	0
5	3173	0.031	8
5	3176	0.031	7
5	3179	0.031	6
5	3181	0.031	5
5	3183	0.031	4
5	3184	0.031	3
5	3185	0.031	2
5	3186	0.031	1
5	3187	0.031	0
5	3278	0.032	8
5	3281	0.032	7
5	3284	0.032	6
5	3286	0.032	5
5	3288	0.032	4
5	3289	0.032	3
5	3290	0.032	2
5	3291	0.032	1
5	3292	0.032	0
5	3381	0.033	8
5	3384	0.033	7
5	3387	0.033	6
5	3389	0.033	5
5	3391	0.033	4
5	3392	0.033	3
5	3393	0.033	2
5	3394	0.033	1
5	3395	0.033	0
5	3485	0.034	8
5	3488	0.034	7
5	3491	0.034	6
5	3493	0.034	5
5	3495	0.034	4
5	3496	0.034	3
5	3497	0.034	2
5	3498	0.034	1
5	3499	0.034	0
5	3588	0.035	8
5	3591	0.035	7
5	3594	0.035	6
5	3596	0.035	5
5	3597	0.035	4
5	3598	0.035	3
5	3599	0.035	2
5	3600	0.035	1
5	3601	0.035	0
5	3691	0.036	8
5	3694	0.036	7
5	3697	0.036	6
5	3699	0.036	5
5	3701	0.036	4
5	3702	0.036	3
5	3703	0.036	2
5	3704	0.036	1
5	3705	0.036	0
5	3796	0.037	8
5	3799	0.037	7
5	3802	0.037	6
5	3804	0.037	5
5	3806	0.037	4
5	3807	0.037	3
5	3808	0.037	2
5	3809	0.037	1
5	3810	0.037	0
5	3899	0.038	8
5	3902	0.038	7
5	3905	0.038	6
5	3907	0.038	5
5	3909	0.038	4
5	3910	0.038	3
5	3911	0.038	2
5	3912	0.038	1
5	3913	0.038	0
5	4003	0.039	8
5	4006	0.039	7
5	4009	0.039	6
5	4011	0.039	5
5	4013	0.039	4
5	4014	0.039	3
5	4015	0.039	2
5	4016	0.039	1
5	4017	0.039	0
5	4108	0.04	8
5	4111	0.04	7
5	4114	0.04	6
5	4116	0.04	5
5	4118	0.04	4
5	4119	0.04	3
5	4120	0.04	2
5	4121	0.04	1
5	4122	0.04	0
5	4213	0.041	8
5	4216	0.041	7
5	4219	0.041	6
5	4221	0.041	5
5	4223	0.041	4
5	4224	0.041	3
5	4225	0.041	2
5	4226	0.041	1
5	4227	0.041	0
5	4316	0.042	8
5	4319	0.042	7
5	4322	0.042	6
5	4324	0.042	5
5	4326	0.042	4
5	4327	0.042	3
5	4328	0.042	2
5	4329	0.042	1
5	4330	0.042	0
5	4420	0.043	8
5	4423	0.043	7
5	4426	0.043	6
5	4428	0.043	5
5	4430	0.043	4
5	4431	0.043	3
5	4432	0.043	2
5	4433	0.043	1
5	4434	0.043	0
5	4525	0.044	8
5	4528	0.044	7
5	4531	0.044	6
5	4533	0.044	5
5	4535	0.044	4
5	4536	0.044	3
5	4537	0.044	2
5	4538	0.044	1
5	4539	0.044	0
5	4628	0.045	7
5	4631	0.045	6
5	4634	0.045	5
5	4636	0.045	4
5	4638	0.045	3
5	4639	0.045	2
5	4640	0.045	1
5	4641	0.045	0
5	4729	0.046	8
5	4732	0.046	7
5	4735	0.046	6
5	4737	0.046	5
5	4738	0.046	4
5	4739	0.046	3
5	4740	0.046	2
5	4741	0.046	1
5	4742	0.046	0
5	4830	0.047	8
5	4833	0.047	7
5	4836	0.047	6
5	4838	0.047	5
5	4840	0.047	4
5	4841	0.047	3
5	4842	0.047	2
5	4843	0.047	1
5	4844	0.047	0
5	4934	0.048	8
5	4937	0.048	7
5	4940	0.048	6
5	4942	0.048	5
5	4944	0.048	4
5	4945	0.048	3
5	4946	0.048	2
5	4947	0.048	1
5	4948	0.048	0
5	5039	0.049	8
5	5042	0.049	7
5	5045	0.049	6
5	5047	0.049	5
5	5049	0.049	4
5	5050	0.049	3
5	5051	0.049	2
5	5052	0.049	1
5	5053	0.049	0
5	5144	0.05	8
5	5147	0.05	7
5	5150	0.05	6
5	5152	0.05	5
5	5154	0.05	4
5	5155	0.05	3
5	5156	0.05	2
5	5157	0.05	1
5	5158	0.05	0
5	5249	0.051	8
5	5252	0.051	7
5	5255	0.051	6
5	5257	0.051	5
5	5259	0.051	4
5	5260	0.051	3
5	5261	0.051	2
5	5262	0.051	1
5	5263	0.051	0
5	5352	0.052	8
5	5355	0.052	7
5	5358	0.052	6
5	5360	0.052	5
5	5362	0.052	4
5	5363	0.052	3
5	5364	0.052	2
5	5365	0.052	1
5	5366	0.052	0
5	5456	0.053	8
5	5459	0.053	7
5	5462	0.053	6
5	5464	0.053	5
5	5466	0.053	4
5	5467	0.053	3
5	5468	0.053	2
5	5469	0.053	1
5	5470	0.053	0
5	5561	0.054	8
5	5564	0.054	7
5	5567	0.054	6
5	5569	0.054	5
5	5571	0.054	4
5	5572	0.054	3
5	5573	0.054	2
5	5574	0.054	1
5	5575	0.054	0
5	5666	0.055	8
5	5669	0.055	7
5	5672	0.055	6
5	5674	0.055	5
5	5676	0.055	4
5	5677	0.055	3
5	5678	0.055	2
5	5679	0.055	1
5	5680	0.055	0
5	5769	0.056	8
5	5772	0.056	7
5	5775	0.056	6
5	5777	0.056	5
5	5779	0.056	4
5	5780	0.056	3
5	5781	0.056	2
5	5782	0.056	1
5	5783	0.056	0
5	5873	0.057	8
5	5876	0.057	7
5	5879	0.057	6
5	5881	0.057	5
5	5883	0.057	4
5	5884	0.057	3
5	5885	0.057	2
5	5886	0.057	1
5	5887	0.057	0
5	5976	0.058	8
5	5979	0.058	7
5	5982	0.058	6
5	5984	0.058	5
5	5985	0.058	4
5	5986	0.058	3
5	5987	0.058	2
5	5988	0.058	1
5	5989	0.058	0
5	6079	0.059	8
5	6082	0.059	7
5	6085	0.059	6
5	6087	0.059	5
5	6089	0.059	4
5	6090	0.059	3
5	6091	0.059	2
5	6092	0.059	1
5	6093	0.059	0
5	6184	0.06	8
5	6187	0.06	7
5	6190	0.06	6
5	6192	0.06	5
5	6194	0.06	4
5	6195	0.06	3
5	6196	0.06	2
5	6197	0.06	1
5	6198	0.06	0
5	6287	0.061	8
5	6290	0.061	7
5	6293	0.061	6
5	6295	0.061	5
5	6297	0.061	4
5	6298	0.061	3
5	6299	0.061	2
5	6300	0.061	1
5	6301	0.061	0
5	6391	0.062	8
5	6394	0.062	7
5	6397	0.062	6
5	6399	0.062	5
5	6401	0.062	4
5	6402	0.062	3
5	6403	0.062	2
5	6404	0.062	1
5	6405	0.062	0
5	6496	0.063	8
5	6499	0.063	7
5	6502	0.063	6
5	6504	0.063	5
5	6506	0.063	4
5	6507	0.063	3
5	6508	0.063	2
5	6509	0.063	1
5	6510	0.063	0
5	6601	0.064	8
5	6604	0.064	7
5	6607	0.064	6
5	6609	0.064	5
5	6611	0.064	4
5	6612	0.064	3
5	6613	0.064	2
5	6614	0.064	1
5	6615	0.064	0
5	6704	0.065	8
5	6707	0.065	7
5	6710	0.065	6
5	6712	0.065	5
5	6714	0.065	4
5	6715	0.065	3
5	6716	0.065	2
5	6717	0.065	1
5	6718	0.065	0
5	6808	0.066	8
5	6811	0.066	7
5	6814	0.066	6
5	6816	0.066	5
5	6818	0.066	4
5	6819	0.066	3
5	6820	0.066	2
5	6821	0.066	1
5	6822	0.066	0
5	6911	0.067	7
5	6914	0.067	6
5	6917	0.067	5
5	6919	0.067	4
5	6921	0.067	3
5	6922	0.067	2
5	6923	0.067	1
5	6924	0.067	0
5	7014	0.068	8
5	7017	0.068	7
5	7020	0.068	6
5	7022	0.068	5
5	7024	0.068	4
5	7025	0.068	3
5	7026	0.068	2
5	7027	0.068	1
5	7028	0.068	0
5	7117	0.069	8
5	7120	0.069	7
5	7123	0.069	6
5	7125	0.069	5
5	7126	0.069	4
5	7127	0.069	3
5	7128	0.069	2
5	7129	0.069	1
5	7130	0.069	0
5	7218	0.07	8
5	7221	0.07	7
5	7224	0.07	6
5	7226	0.07	5
5	7228	0.07	4
5	7229	0.07	3
5	7230	0.07	2
5	7231	0.07	1
5	7232	0.07	0
5	7322	0.071	8
5	7325	0.071	7
5	7328	0.071	6
5	7330	0.071	5
5	7332	0.071	4
5	7333	0.071	3
5	7334	0.071	2
5	7335	0.071	1
5	7336	0.071	0
5	7427	0.072	8
5	7430	0.072	7
5	7433	0.072	6
5	7435	0.072	5
5	7437	0.072	4
5	7438	0.072	3
5	7439	0.072	2
5	7440	0.072	1
5	7441	0.072	0
5	7532	0.073	8
5	7535	0.073	7
5	7538	0.073	6
5	7540	0.073	5
5	7542	0.073	4
5	7543	0.073	3
5	7544	0.073	2
5	7545	0.073	1
5	7546	0.073	0
5	7637	0.074	8
5	7640	0.074	7
5	7643	0.074	6
5	7645	0.074	5
5	7647	0.074	4
5	7648	0.074	3
5	7649	0.074	2
5	7650	0.074	1
5	7651	0.074	0
5	7740	0.075	8
5	7743	0.075	7
5	7746	0.075	6
5	7748	0.075	5
5	7750	0.075	4
5	7751	0.075	3
5	7752	0.075	2
5	7753	0.075	1
5	7754	0.075	0
5	7844	0.076	8
5	7847	0.076	7
5	7850	0.076	6
5	7852	0.076	5
5	7854	0.076	4
5	7855	0.076	3
5	7856	0.076	2
5	7857	0.076	1
5	7858	0.076	0
5	7949	0.077	8
5	7952	0.077	7
5	7955	0.077	6
5	7957	0.077	5
5	7959	0.077	4
5	7960	0.077	3
5	7961	0.077	2
5	7962	0.077	1
5	7963	0.077	0
5	8054	0.078	8
5	8057	0.078	7
5	8060	0.078	6
5	8062	0.078	5
5	8064	0.078	4
5	8065	0.078	3
5	8066	0.078	2
5	8067	0.078	1
5	8068	0.078	0
5	8157	0.079	8
5	8160	0.079	7
5	8163	0.079	6
5	8165	0.079	5
5	8167	0.079	4
5	8168	0.079	3
5	8169	0.079	2
5	8170	0.079	1
5	8171	0.079	0
5	8261	0.08	8
5	8264	0.08	7
5	8267	0.08	6
5	8269	0.08	5
5	8271	0.08	4
5	8272	0.08	3
5	8273	0.08	2
5	8274	0.08	1
5	8275	0.08	0
5	8364	0.081	8
5	8367	0.081	7
5	8370	0.081	6
5	8372	0.081	5
5	8373	0.081	4
5	8374	0.081	3
5	8375	0.081	2
5	8376	0.081	1
5	8377	0.081	0
5	8467	0.082	8
5	8470	0.082	7
5	8473	0.082	6
5	8475	0.082	5
5	8477	0.082	4
5	8478	0.082	3
5	8479	0.082	2
5	8480	0.082	1
5	8481	0.082	0
5	8572	0.083	8
5	8575	0.083	7
5	8578	0.083	6
5	8580	0.083	5
5	8582	0.083	4
5	8583	0.083	3
5	8584	0.083	2
5	8585	0.083	1
5	8586	0.083	0
5	8675	0.084	8
5	8678	0.084	7
5	8681	0.084	6
5	8683	0.084	5
5	8685	0.084	4
5	8686	0.084	3
5	8687	0.084	2
5	8688	0.084	1
5	8689	0.084	0
5	8779	0.085	8
5	8782	0.085	7
5	8785	0.085	6
5	8787	0.085	5
5	8789	0.085	4
5	8790	0.085	3
5	8791	0.085	2
5	8792	0.085	1
5	8793	0.085	0
5	8884	0.086	8
5	8887	0.086	7
5	8890	0.086	6
5	8892	0.086	5
5	8894	0.086	4
5	8895	0.086	3
5	8896	0.086	2
5	8897	0.086	1
5	8898	0.086	0
5	8989	0.087	8
5	8992	0.087	7
5	8995	0.087	6
5	8997	0.087	5
5	8999	0.087	4
5	9000	0.087	3
5	9001	0.087	2
5	9002	0.087	1
5	9003	0.087	0
5	9094	0.088	8
5	9097	0.088	7
5	9100	0.088	6
5	9102	0.088	5
5	9104	0.088	4
5	9105	0.088	3
5	9106	0.088	2
5	9107	0.088	1
5	9108	0.088	0
5	9197	0.089	8
5	9200	0.089	7
5	9203	0.089	6
5	9205	0.089	5
5	9207	0.089	4
5	9208	0.089	3
5	9209	0.089	2
5	9210	0.089	1
5	9211	0.089	0
5	9299	0.09	7
5	9302	0.09	6
5	9305	0.09	5
5	9307	0.09	4
5	9309	0.09	3
5	9310	0.09	2
5	9311	0.09	1
5	9312	0.09	0
5	9402	0.091	8
5	9405	0.091	7
5	9408	0.091	6
5	9410	0.091	5
5	9412	0.091	4
5	9413	0.091	3
5	9414	0.091	2
5	9415	0.091	1
5	9416	0.091	0
5	9505	0.092	8
5	9508	0.092	7
5	9511	0.092	6
5	9513	0.092	5
5	9514	0.092	4
5	9515	0.092	3
5	9516	0.092	2
5	9517	0.092	1
5	9518	0.092	0
5	9606	0.093	8
5	9609	0.093	7
5	9612	0.093	6
5	9614	0.093	5
5	9616	0.093	4
5	9617	0.093	3
5	9618	0.093	2
5	9619	0.093	1
5	9620	0.093	0
5	9710	0.094	8
5	9713	0.094	7
5	9716	0.094	6
5	9718	0.094	5
5	9720	0.094	4
5	9721	0.094	3
5	9722	0.094	2
5	9723	0.094	1
5	9724	0.094	0
5	9815	0.095	8
5	9818	0.095	7
5	9821	0.095	6
5	9823	0.095	5
5	9825	0.095	4
5	9826	0.095	3
5	9827	0.095	2
5	9828	0.095	1
5	9829	0.095	0
5	9920	0.096	8
5	9923	0.096	7
5	9926	0.096	6
5	9928	0.096	5
5	9930	0.096	4
5	9931	0.096	3
5	9932	0.096	2
5	9933	0.096	1
5	9934	0.096	0
6	57	0.001	6
6	60	0.001	4
6	63	0.001	2
6	66	0.001	0
6	156	0.002	7
6	159	0.002	5
6	162	0.002	3
6	165	0.002	1
6	167	0.002	0
6	261	0.003	7
6	264	0.003	5
6	267	0.003	3
6	270	0.003	1
6	272	0.003	0
6	366	0.004	7
6	369	0.004	5
6	372	0.004	3
6	375	0.004	1
6	377	0.004	0
6	469	0.005	7
6	472	0.005	5
6	475	0.005	3
6	478	0.005	1
6	480	0.005	0
6	573	0.006	7
6	576	0.006	5
6	579	0.006	3
6	582	0.006	1
6	584	0.006	0
6	678	0.007	7
6	681	0.007	5
6	684	0.007	3
6	687	0.007	1
6	689	0.007	0
6	783	0.008	7
6	786	0.008	5
6	789	0.008	3
6	792	0.008	1
6	794	0.008	0
6	888	0.009	7
6	891	0.009	5
6	894	0.009	3
6	897	0.009	1
6	899	0.009	0
6	991	0.01	7
6	994	0.01	5
6	997	0.01	3
6	1000	0.01	1
6	1002	0.01	0
6	1095	0.011	7
6	1098	0.011	5
6	1101	0.011	3
6	1104	0.011	1
6	1106	0.011	0
6	1198	0.012	6
6	1201	0.012	4
6	1204	0.012	2
6	1207	0.012	0
6	1301	0.013	7
6	1304	0.013	5
6	1307	0.013	3
6	1310	0.013	1
6	1312	0.013	0
6	1404	0.014	7
6	1407	0.014	5
6	1410	0.014	3
6	1413	0.014	1
6	1415	0.014	0
6	1508	0.015	7
6	1511	0.015	5
6	1514	0.015	3
6	1517	0.015	1
6	1519	0.015	0
6	1613	0.016	7
6	1616	0.016	5
6	1619	0.016	3
6	1622	0.016	1
6	1624	0.016	0
6	1718	0.017	7
6	1721	0.017	5
6	1724	0.017	3
6	1727	0.017	1
6	1729	0.017	0
6	1823	0.018	7
6	1826	0.018	5
6	1829	0.018	3
6	1832	0.018	1
6	1834	0.018	0
6	1926	0.019	7
6	1929	0.019	5
6	1932	0.019	3
6	1935	0.019	1
6	1937	0.019	0
6	2030	0.02	7
6	2033	0.02	5
6	2036	0.02	3
6	2039	0.02	1
6	2041	0.02	0
6	2135	0.021	7
6	2138	0.021	5
6	2141	0.021	3
6	2144	0.021	1
6	2146	0.021	0
6	2240	0.022	7
6	2243	0.022	5
6	2246	0.022	3
6	2249	0.022	1
6	2251	0.022	0
6	2341	0.023	6
6	2344	0.023	4
6	2347	0.023	2
6	2350	0.023	0
6	2440	0.024	7
6	2443	0.024	5
6	2446	0.024	3
6	2449	0.024	1
6	2451	0.024	0
6	2544	0.025	7
6	2547	0.025	5
6	2550	0.025	3
6	2553	0.025	1
6	2555	0.025	0
6	2649	0.026	7
6	2652	0.026	5
6	2655	0.026	3
6	2658	0.026	1
6	2660	0.026	0
6	2754	0.027	7
6	2757	0.027	5
6	2760	0.027	3
6	2763	0.027	1
6	2765	0.027	0
6	2857	0.028	7
6	2860	0.028	5
6	2863	0.028	3
6	2866	0.028	1
6	2868	0.028	0
6	2961	0.029	7
6	2964	0.029	5
6	2967	0.029	3
6	2970	0.029	1
6	2972	0.029	0
6	3066	0.03	7
6	3069	0.03	5
6	3072	0.03	3
6	3075	0.03	1
6	3077	0.03	0
6	3171	0.031	7
6	3174	0.031	5
6	3177	0.031	3
6	3180	0.031	1
6	3182	0.031	0
6	3276	0.032	7
6	3279	0.032	5
6	3282	0.032	3
6	3285	0.032	1
6	3287	0.032	0
6	3379	0.033	7
6	3382	0.033	5
6	3385	0.033	3
6	3388	0.033	1
6	3390	0.033	0
6	3483	0.034	7
6	3486	0.034	5
6	3489	0.034	3
6	3492	0.034	1
6	3494	0.034	0
6	3586	0.035	6
6	3589	0.035	4
6	3592	0.035	2
6	3595	0.035	0
6	3689	0.036	7
6	3692	0.036	5
6	3695	0.036	3
6	3698	0.036	1
6	3700	0.036	0
6	3794	0.037	7
6	3797	0.037	5
6	3800	0.037	3
6	3803	0.037	1
6	3805	0.037	0
6	3897	0.038	7
6	3900	0.038	5
6	3903	0.038	3
6	3906	0.038	1
6	3908	0.038	0
6	4001	0.039	7
6	4004	0.039	5
6	4007	0.039	3
6	4010	0.039	1
6	4012	0.039	0
6	4106	0.04	7
6	4109	0.04	5
6	4112	0.04	3
6	4115	0.04	1
6	4117	0.04	0
6	4211	0.041	7
6	4214	0.041	5
6	4217	0.041	3
6	4220	0.041	1
6	4222	0.041	0
6	4314	0.042	7
6	4317	0.042	5
6	4320	0.042	3
6	4323	0.042	1
6	4325	0.042	0
6	4418	0.043	7
6	4421	0.043	5
6	4424	0.043	3
6	4427	0.043	1
6	4429	0.043	0
6	4523	0.044	7
6	4526	0.044	5
6	4529	0.044	3
6	4532	0.044	1
6	4534	0.044	0
6	4626	0.045	7
6	4629	0.045	5
6	4632	0.045	3
6	4635	0.045	1
6	4637	0.045	0
6	4727	0.046	6
6	4730	0.046	4
6	4733	0.046	2
6	4736	0.046	0
6	4828	0.047	7
6	4831	0.047	5
6	4834	0.047	3
6	4837	0.047	1
6	4839	0.047	0
6	4932	0.048	7
6	4935	0.048	5
6	4938	0.048	3
6	4941	0.048	1
6	4943	0.048	0
6	5037	0.049	7
6	5040	0.049	5
6	5043	0.049	3
6	5046	0.049	1
6	5048	0.049	0
6	5142	0.05	7
6	5145	0.05	5
6	5148	0.05	3
6	5151	0.05	1
6	5153	0.05	0
6	5247	0.051	7
6	5250	0.051	5
6	5253	0.051	3
6	5256	0.051	1
6	5258	0.051	0
6	5350	0.052	7
6	5353	0.052	5
6	5356	0.052	3
6	5359	0.052	1
6	5361	0.052	0
6	5454	0.053	7
6	5457	0.053	5
6	5460	0.053	3
6	5463	0.053	1
6	5465	0.053	0
6	5559	0.054	7
6	5562	0.054	5
6	5565	0.054	3
6	5568	0.054	1
6	5570	0.054	0
6	5664	0.055	7
6	5667	0.055	5
6	5670	0.055	3
6	5673	0.055	1
6	5675	0.055	0
6	5767	0.056	7
6	5770	0.056	5
6	5773	0.056	3
6	5776	0.056	1
6	5778	0.056	0
6	5871	0.057	7
6	5874	0.057	5
6	5877	0.057	3
6	5880	0.057	1
6	5882	0.057	0
6	5974	0.058	6
6	5977	0.058	4
6	5980	0.058	2
6	5983	0.058	0
6	6077	0.059	7
6	6080	0.059	5
6	6083	0.059	3
6	6086	0.059	1
6	6088	0.059	0
6	6182	0.06	7
6	6185	0.06	5
6	6188	0.06	3
6	6191	0.06	1
6	6193	0.06	0
6	6285	0.061	7
6	6288	0.061	5
6	6291	0.061	3
6	6294	0.061	1
6	6296	0.061	0
6	6389	0.062	7
6	6392	0.062	5
6	6395	0.062	3
6	6398	0.062	1
6	6400	0.062	0
6	6494	0.063	7
6	6497	0.063	5
6	6500	0.063	3
6	6503	0.063	1
6	6505	0.063	0
6	6599	0.064	7
6	6602	0.064	5
6	6605	0.064	3
6	6608	0.064	1
6	6610	0.064	0
6	6702	0.065	7
6	6705	0.065	5
6	6708	0.065	3
6	6711	0.065	1
6	6713	0.065	0
6	6806	0.066	7
6	6809	0.066	5
6	6812	0.066	3
6	6815	0.066	1
6	6817	0.066	0
6	6909	0.067	7
6	6912	0.067	5
6	6915	0.067	3
6	6918	0.067	1
6	6920	0.067	0
6	7012	0.068	7
6	7015	0.068	5
6	7018	0.068	3
6	7021	0.068	1
6	7023	0.068	0
6	7115	0.069	6
6	7118	0.069	4
6	7121	0.069	2
6	7124	0.069	0
6	7216	0.07	7
6	7219	0.07	5
6	7222	0.07	3
6	7225	0.07	1
6	7227	0.07	0
6	7320	0.071	7
6	7323	0.071	5
6	7326	0.071	3
6	7329	0.071	1
6	7331	0.071	0
6	7425	0.072	7
6	7428	0.072	5
6	7431	0.072	3
6	7434	0.072	1
6	7436	0.072	0
6	7530	0.073	7
6	7533	0.073	5
6	7536	0.073	3
6	7539	0.073	1
6	7541	0.073	0
6	7635	0.074	7
6	7638	0.074	5
6	7641	0.074	3
6	7644	0.074	1
6	7646	0.074	0
6	7738	0.075	7
6	7741	0.075	5
6	7744	0.075	3
6	7747	0.075	1
6	7749	0.075	0
6	7842	0.076	7
6	7845	0.076	5
6	7848	0.076	3
6	7851	0.076	1
6	7853	0.076	0
6	7947	0.077	7
6	7950	0.077	5
6	7953	0.077	3
6	7956	0.077	1
6	7958	0.077	0
6	8052	0.078	7
6	8055	0.078	5
6	8058	0.078	3
6	8061	0.078	1
6	8063	0.078	0
6	8155	0.079	7
6	8158	0.079	5
6	8161	0.079	3
6	8164	0.079	1
6	8166	0.079	0
6	8259	0.08	7
6	8262	0.08	5
6	8265	0.08	3
6	8268	0.08	1
6	8270	0.08	0
6	8362	0.081	6
6	8365	0.081	4
6	8368	0.081	2
6	8371	0.081	0
6	8465	0.082	7
6	8468	0.082	5
6	8471	0.082	3
6	8474	0.082	1
6	8476	0.082	0
6	8570	0.083	7
6	8573	0.083	5
6	8576	0.083	3
6	8579	0.083	1
6	8581	0.083	0
6	8673	0.084	7
6	8676	0.084	5
6	8679	0.084	3
6	8682	0.084	1
6	8684	0.084	0
6	8777	0.085	7
6	8780	0.085	5
6	8783	0.085	3
6	8786	0.085	1
6	8788	0.085	0
6	8882	0.086	7
6	8885	0.086	5
6	8888	0.086	3
6	8891	0.086	1
6	8893	0.086	0
6	8987	0.087	7
6	8990	0.087	5
6	8993	0.087	3
6	8996	0.087	1
6	8998	0.087	0
6	9092	0.088	7
6	9095	0.088	5
6	9098	0.088	3
6	9101	0.088	1
6	9103	0.088	0
6	9195	0.089	7
6	9198	0.089	5
6	9201	0.089	3
6	9204	0.089	1
6	9206	0.089	0
6	9297	0.09	7
6	9300	0.09	5
6	9303	0.09	3
6	9306	0.09	1
6	9308	0.09	0
6	9400	0.091	7
6	9403	0.091	5
6	9406	0.091	3
6	9409	0.091	1
6	9411	0.091	0
6	9503	0.092	6
6	9506	0.092	4
6	9509	0.092	2
6	9512	0.092	0
6	9604	0.093	7
6	9607	0.093	5
6	9610	0.093	3
6	9613	0.093	1
6	9615	0.093	0
6	9708	0.094	7
6	9711	0.094	5
6	9714	0.094	3
6	9717	0.094	1
6	9719	0.094	0
6	9813	0.095	7
6	9816	0.095	5
6	9819	0.095	3
6	9822	0.095	1
6	9824	0.095	0
6	9918	0.096	7
6	9921	0.096	5
6	9924	0.096	3
6	9927	0.096	1
6	9929	0.096	0
7	58	0.001	5
7	61	0.001	2
7	64	0.001	0
7	157	0.002	6
7	160	0.002	3
7	163	0.002	0
7	262	0.003	6
7	265	0.003	3
7	268	0.003	0
7	367	0.004	6
7	370	0.004	3
7	373	0.004	0
7	470	0.005	5
7	473	0.005	2
7	476	0.005	0
7	574	0.006	6
7	577	0.006	3
7	580	0.006	0
7	679	0.007	6
7	682	0.007	3
7	685	0.007	0
7	784	0.008	6
7	787	0.008	3
7	790	0.008	0
7	889	0.009	6
7	892	0.009	3
7	895	0.009	0
7	992	0.01	5
7	995	0.01	2
7	998	0.01	0
7	1096	0.011	6
7	1099	0.011	3
7	1102	0.011	0
7	1199	0.012	6
7	1202	0.012	3
7	1205	0.012	0
7	1302	0.013	6
7	1305	0.013	3
7	1308	0.013	0
7	1405	0.014	5
7	1408	0.014	2
7	1411	0.014	0
7	1509	0.015	6
7	1512	0.015	3
7	1515	0.015	0
7	1614	0.016	6
7	1617	0.016	3
7	1620	0.016	0
7	1719	0.017	6
7	1722	0.017	3
7	1725	0.017	0
7	1824	0.018	6
7	1827	0.018	3
7	1830	0.018	0
7	1927	0.019	5
7	1930	0.019	2
7	1933	0.019	0
7	2031	0.02	6
7	2034	0.02	3
7	2037	0.02	0
7	2136	0.021	6
7	2139	0.021	3
7	2142	0.021	0
7	2241	0.022	6
7	2244	0.022	3
7	2247	0.022	0
7	2342	0.023	6
7	2345	0.023	3
7	2348	0.023	0
7	2441	0.024	5
7	2444	0.024	2
7	2447	0.024	0
7	2545	0.025	6
7	2548	0.025	3
7	2551	0.025	0
7	2650	0.026	6
7	2653	0.026	3
7	2656	0.026	0
7	2755	0.027	6
7	2758	0.027	3
7	2761	0.027	0
7	2858	0.028	5
7	2861	0.028	2
7	2864	0.028	0
7	2962	0.029	6
7	2965	0.029	3
7	2968	0.029	0
7	3067	0.03	6
7	3070	0.03	3
7	3073	0.03	0
7	3172	0.031	6
7	3175	0.031	3
7	3178	0.031	0
7	3277	0.032	6
7	3280	0.032	3
7	3283	0.032	0
7	3380	0.033	5
7	3383	0.033	2
7	3386	0.033	0
7	3484	0.034	6
7	3487	0.034	3
7	3490	0.034	0
7	3587	0.035	6
7	3590	0.035	3
7	3593	0.035	0
7	3690	0.036	6
7	3693	0.036	3
7	3696	0.036	0
7	3795	0.037	6
7	3798	0.037	3
7	3801	0.037	0
7	3898	0.038	5
7	3901	0.038	2
7	3904	0.038	0
7	4002	0.039	6
7	4005	0.039	3
7	4008	0.039	0
7	4107	0.04	6
7	4110	0.04	3
7	4113	0.04	0
7	4212	0.041	6
7	4215	0.041	3
7	4218	0.041	0
7	4315	0.042	5
7	4318	0.042	2
7	4321	0.042	0
7	4419	0.043	6
7	4422	0.043	3
7	4425	0.043	0
7	4524	0.044	6
7	4527	0.044	3
7	4530	0.044	0
7	4627	0.045	6
7	4630	0.045	3
7	4633	0.045	0
7	4728	0.046	6
7	4731	0.046	3
7	4734	0.046	0
7	4829	0.047	5
7	4832	0.047	2
7	4835	0.047	0
7	4933	0.048	6
7	4936	0.048	3
7	4939	0.048	0
7	5038	0.049	6
7	5041	0.049	3
7	5044	0.049	0
7	5143	0.05	6
7	5146	0.05	3
7	5149	0.05	0
7	5248	0.051	6
7	5251	0.051	3
7	5254	0.051	0
7	5351	0.052	5
7	5354	0.052	2
7	5357	0.052	0
7	5455	0.053	6
7	5458	0.053	3
7	5461	0.053	0
7	5560	0.054	6
7	5563	0.054	3
7	5566	0.054	0
7	5665	0.055	6
7	5668	0.055	3
7	5671	0.055	0
7	5768	0.056	5
7	5771	0.056	2
7	5774	0.056	0
7	5872	0.057	6
7	5875	0.057	3
7	5878	0.057	0
7	5975	0.058	6
7	5978	0.058	3
7	5981	0.058	0
7	6078	0.059	6
7	6081	0.059	3
7	6084	0.059	0
7	6183	0.06	6
7	6186	0.06	3
7	6189	0.06	0
7	6286	0.061	5
7	6289	0.061	2
7	6292	0.061	0
7	6390	0.062	6
7	6393	0.062	3
7	6396	0.062	0
7	6495	0.063	6
7	6498	0.063	3
7	6501	0.063	0
7	6600	0.064	6
7	6603	0.064	3
7	6606	0.064	0
7	6703	0.065	5
7	6706	0.065	2
7	6709	0.065	0
7	6807	0.066	6
7	6810	0.066	3
7	6813	0.066	0
7	6910	0.067	6
7	6913	0.067	3
7	6916	0.067	0
7	7013	0.068	6
7	7016	0.068	3
7	7019	0.068	0
7	7116	0.069	6
7	7119	0.069	3
7	7122	0.069	0
7	7217	0.07	5
7	7220	0.07	2
7	7223	0.07	0
7	7321	0.071	6
7	7324	0.071	3
7	7327	0.071	0
7	7426	0.072	6
7	7429	0.072	3
7	7432	0.072	0
7	7531	0.073	6
7	7534	0.073	3
7	7537	0.073	0
7	7636	0.074	6
7	7639	0.074	3
7	7642	0.074	0
7	7739	0.075	5
7	7742	0.075	2
7	7745	0.075	0
7	7843	0.076	6
7	7846	0.076	3
7	7849	0.076	0
7	7948	0.077	6
7	7951	0.077	3
7	7954	0.077	0
7	8053	0.078	6
7	8056	0.078	3
7	8059	0.078	0
7	8156	0.079	5
7	8159	0.079	2
7	8162	0.079	0
7	8260	0.08	6
7	8263	0.08	3
7	8266	0.08	0
7	8363	0.081	6
7	8366	0.081	3
7	8369	0.081	0
7	8466	0.082	6
7	8469	0.082	3
7	8472	0.082	0
7	8571	0.083	6
7	8574	0.083	3
7	8577	0.083	0
7	8674	0.084	5
7	8677	0.084	2
7	8680	0.084	0
7	8778	0.085	6
7	8781	0.085	3
7	8784	0.085	0
7	8883	0.086	6
7	8886	0.086	3
7	8889	0.086	0
7	8988	0.087	6
7	8991	0.087	3
7	8994	0.087	0
7	9093	0.088	6
7	9096	0.088	3
7	9099	0.088	0
7	9196	0.089	5
7	9199	0.089	2
7	9202	0.089	0
7	9298	0.09	6
7	9301	0.09	3
7	9304	0.09	0
7	9401	0.091	6
7	9404	0.091	3
7	9407	0.091	0
7	9504	0.092	6
7	9507	0.092	3
7	9510	0.092	0
7	9605	0.093	5
7	9608	0.093	2
7	9611	0.093	0
7	9709	0.094	6
7	9712	0.094	3
7	9715	0.094	0
7	9814	0.095	6
7	9817	0.095	3
7	9820	0.095	0
7	9919	0.096	6
7	9922	0.096	3
7	9925	0.096	0
8	71	0.001	0.000888332591
8	72	0.001	0.000887804352
8	73	0.001	0.000775608704
8	74	0.001	0.000886163695
8	75	0.001	0.00077232739
8	76	0.001	0.000658491085
8	77	0.001	0.000776665182
8	78	0.001	0.000663413056
8	79	0.001	0.000551217408
8	80	0.001	0.00054465478
8	81	0.001	0.000430818475
8	82	0.001	0.00031698217
8	83	0.001	0.000664997773
8	84	0.001	0.00043902176
8	85	0.001	0.000326826112
8	86	0.001	0.000203145865
8	87	0.001	8.930956e-005
8	88	0.001	0.000553330364
8	89	0.001	0.000214630464
8	90	0.001	0.000102434816
8	91	0.001	0.000441662955
8	92	0.001	0.000329995546
8	93	0.001	0.000218328137
8	94	0.001	0.000106660728
8	173	0.002	0.000990239168
8	174	0.002	0.00087804352
8	175	0.002	0.000975473255
8	176	0.002	0.00086163695
8	177	0.002	0.000747800645
8	178	0.002	0.000994993319
8	179	0.002	0.000765847872
8	180	0.002	0.000653652224
8	181	0.002	0.00063396434
8	182	0.002	0.000520128035
8	183	0.002	0.00040629173
8	184	0.002	0.00088332591
8	185	0.002	0.000541456576
8	186	0.002	0.000429260928
8	187	0.002	0.000292455425
8	188	0.002	0.00017861912
8	189	0.002	6.4782815e-005
8	190	0.002	0.000771658501
8	191	0.002	0.00031706528
8	192	0.002	0.000204869632
8	193	0.002	0.000659991092
8	194	0.002	9.2673984e-005
8	195	0.002	0.000548323683
8	196	0.002	0.000436656274
8	197	0.002	0.000324988865
8	198	0.002	0.000213321456
8	199	0.002	0.000101654047
8	278	0.003	0.000980478336
8	279	0.003	0.000868282688
8	280	0.003	0.00095094651
8	281	0.003	0.000837110205
8	282	0.003	0.0007232739
8	283	0.003	0.000989986638
8	284	0.003	0.00075608704
8	285	0.003	0.000643891392
8	286	0.003	0.000609437595
8	287	0.003	0.00049560129
8	288	0.003	0.000381764985
8	289	0.003	0.000878319229
8	290	0.003	0.000531695744
8	291	0.003	0.000419500096
8	292	0.003	0.00026792868
8	293	0.003	0.000154092375
8	294	0.003	4.025607e-005
8	295	0.003	0.00076665182
8	296	0.003	0.000307304448
8	297	0.003	0.0001951088
8	298	0.003	0.000654984411
8	299	0.003	8.2913152e-005
8	300	0.003	0.000543317002
8	301	0.003	0.000431649593
8	302	0.003	0.000319982184
8	303	0.003	0.000208314775
8	304	0.003	9.6647366e-005
8	383	0.004	0.000970717504
8	384	0.004	0.000858521856
8	385	0.004	0.000926419765
8	386	0.004	0.00081258346
8	387	0.004	0.000698747155
8	388	0.004	0.000984979957
8	389	0.004	0.000746326208
8	390	0.004	0.00063413056
8	391	0.004	0.00058491085
8	392	0.004	0.000471074545
8	393	0.004	0.00035723824
8	394	0.004	0.000873312548
8	395	0.004	0.000521934912
8	396	0.004	0.000409739264
8	397	0.004	0.000243401935
8	398	0.004	0.00012956563
8	399	0.004	1.5729325e-005
8	400	0.004	0.000761645139
8	401	0.004	0.000297543616
8	402	0.004	0.000185347968
8	403	0.004	0.00064997773
8	404	0.004	7.315232e-005
8	405	0.004	0.000538310321
8	406	0.004	0.000426642912
8	407	0.004	0.000314975503
8	408	0.004	0.000203308094
8	409	0.004	9.1640685e-005
8	486	0.005	0.000960956672
8	487	0.005	0.000848761024
8	488	0.005	0.00090189302
8	489	0.005	0.000788056715
8	490	0.005	0.00067422041
8	491	0.005	0.000979973276
8	492	0.005	0.000736565376
8	493	0.005	0.000624369728
8	494	0.005	0.000560384105
8	495	0.005	0.0004465478
8	496	0.005	0.000332711495
8	497	0.005	0.000868305867
8	498	0.005	0.00051217408
8	499	0.005	0.000399978432
8	500	0.005	0.00021887519
8	501	0.005	0.000105038885
8	502	0.005	0.000756638458
8	503	0.005	0.000287782784
8	504	0.005	0.000175587136
8	505	0.005	0.000644971049
8	506	0.005	6.3391488e-005
8	507	0.005	0.00053330364
8	508	0.005	0.000421636231
8	509	0.005	0.000309968822
8	510	0.005	0.000198301413
8	511	0.005	8.6634004e-005
8	590	0.006	0.00095119584
8	591	0.006	0.000839000192
8	592	0.006	0.00099120258
8	593	0.006	0.000877366275
8	594	0.006	0.00076352997
8	595	0.006	0.000974966595
8	596	0.006	0.000726804544
8	597	0.006	0.000614608896
8	598	0.006	0.000649693665
8	599	0.006	0.00053585736
8	600	0.006	0.000422021055
8	601	0.006	0.000863299186
8	602	0.006	0.000502413248
8	603	0.006	0.0003902176
8	604	0.006	0.00030818475
8	605	0.006	0.000194348445
8	606	0.006	8.051214e-005
8	607	0.006	0.000751631777
8	608	0.006	0.000278021952
8	609	0.006	0.000165826304
8	610	0.006	0.000639964368
8	611	0.006	5.3630656e-005
8	612	0.006	0.000528296959
8	613	0.006	0.00041662955
8	614	0.006	0.000304962141
8	615	0.006	0.000193294732
8	616	0.006	8.1627323e-005
8	695	0.007	0.000941435008
8	696	0.007	0.00082923936
8	697	0.007	0.000966675835
8	698	0.007	0.00085283953
8	699	0.007	0.000739003225
8	700	0.007	0.000969959914
8	701	0.007	0.000717043712
8	702	0.007	0.000604848064
8	703	0.007	0.00062516692
8	704	0.007	0.000511330615
8	705	0.007	0.00039749431
8	706	0.007	0.000858292505
8	707	0.007	0.000492652416
8	708	0.007	0.000380456768
8	709	0.007	0.000283658005
8	710	0.007	0.0001698217
8	711	0.007	5.5985395e-005
8	712	0.007	0.000746625096
8	713	0.007	0.00026826112
8	714	0.007	0.000156065472
8	715	0.007	0.000634957687
8	716	0.007	4.3869824e-005
8	717	0.007	0.000523290278
8	718	0.007	0.000411622869
8	719	0.007	0.00029995546
8	720	0.007	0.000188288051
8	721	0.007	7.6620642e-005
8	800	0.008	0.000931674176
8	801	0.008	0.000819478528
8	802	0.008	0.00094214909
8	803	0.008	0.000828312785
8	804	0.008	0.00071447648
8	805	0.008	0.000964953233
8	806	0.008	0.00070728288
8	807	0.008	0.000595087232
8	808	0.008	0.000600640175
8	809	0.008	0.00048680387
8	810	0.008	0.000372967565
8	811	0.008	0.000853285824
8	812	0.008	0.000482891584
8	813	0.008	0.000370695936
8	814	0.008	0.00025913126
8	815	0.008	0.000145294955
8	816	0.008	3.145865e-005
8	817	0.008	0.000741618415
8	818	0.008	0.000258500288
8	819	0.008	0.00014630464
8	820	0.008	0.000629951006
8	821	0.008	3.4108992e-005
8	822	0.008	0.000518283597
8	823	0.008	0.000406616188
8	824	0.008	0.000294948779
8	825	0.008	0.00018328137
8	826	0.008	7.1613961e-005
8	905	0.009	0.000921913344
8	906	0.009	0.000809717696
8	907	0.009	0.000917622345
8	908	0.009	0.00080378604
8	909	0.009	0.000689949735
8	910	0.009	0.000959946552
8	911	0.009	0.000697522048
8	912	0.009	0.0005853264
8	913	0.009	0.00057611343
8	914	0.009	0.000462277125
8	915	0.009	0.00034844082
8	916	0.009	0.000848279143
8	917	0.009	0.000473130752
8	918	0.009	0.000360935104
8	919	0.009	0.000234604515
8	920	0.009	0.00012076821
8	921	0.009	6.931905e-006
8	922	0.009	0.000736611734
8	923	0.009	0.000248739456
8	924	0.009	0.000136543808
8	925	0.009	0.000624944325
8	926	0.009	2.434816e-005
8	927	0.009	0.000513276916
8	928	0.009	0.000401609507
8	929	0.009	0.000289942098
8	930	0.009	0.000178274689
8	931	0.009	6.660728e-005
8	1008	0.01	0.000912152512
8	1009	0.01	0.000799956864
8	1010	0.01	0.0008930956
8	1011	0.01	0.000779259295
8	1012	0.01	0.00066542299
8	1013	0.01	0.000954939871
8	1014	0.01	0.000687761216
8	1015	0.01	0.000575565568
8	1016	0.01	0.000551586685
8	1017	0.01	0.00043775038
8	1018	0.01	0.000323914075
8	1019	0.01	0.000843272462
8	1020	0.01	0.00046336992
8	1021	0.01	0.000351174272
8	1022	0.01	0.00021007777
8	1023	0.01	9.6241465e-005
8	1024	0.01	0.000731605053
8	1025	0.01	0.000238978624
8	1026	0.01	0.000126782976
8	1027	0.01	0.000619937644
8	1028	0.01	1.4587328e-005
8	1029	0.01	0.000508270235
8	1030	0.01	0.000396602826
8	1031	0.01	0.000284935417
8	1032	0.01	0.000173268008
8	1033	0.01	6.1600599e-005
8	1112	0.011	0.00090239168
8	1113	0.011	0.000790196032
8	1114	0.011	0.00098240516
8	1115	0.011	0.000868568855
8	1116	0.011	0.00075473255
8	1117	0.011	0.00094993319
8	1118	0.011	0.000678000384
8	1119	0.011	0.000565804736
8	1120	0.011	0.000640896245
8	1121	0.011	0.00052705994
8	1122	0.011	0.000413223635
8	1123	0.011	0.000838265781
8	1124	0.011	0.000453609088
8	1125	0.011	0.00034141344
8	1126	0.011	0.00029938733
8	1127	0.011	0.000185551025
8	1128	0.011	7.171472e-005
8	1129	0.011	0.000726598372
8	1130	0.011	0.000229217792
8	1131	0.011	0.000117022144
8	1132	0.011	0.000614930963
8	1133	0.011	4.826496e-006
8	1134	0.011	0.000503263554
8	1135	0.011	0.000391596145
8	1136	0.011	0.000279928736
8	1137	0.011	0.000168261327
8	1138	0.011	5.6593918e-005
8	1214	0.012	0.000892630848
8	1215	0.012	0.0007804352
8	1216	0.012	0.000957878415
8	1217	0.012	0.00084404211
8	1218	0.012	0.000730205805
8	1219	0.012	0.000944926509
8	1220	0.012	0.000668239552
8	1221	0.012	0.000556043904
8	1222	0.012	0.0006163695
8	1223	0.012	0.000502533195
8	1224	0.012	0.00038869689
8	1225	0.012	0.0008332591
8	1226	0.012	0.000443848256
8	1227	0.012	0.000331652608
8	1228	0.012	0.000274860585
8	1229	0.012	0.00016102428
8	1230	0.012	4.7187975e-005
8	1231	0.012	0.000721591691
8	1232	0.012	0.00021945696
8	1233	0.012	0.000107261312
8	1234	0.012	0.000609924282
8	1235	0.012	0.000498256873
8	1236	0.012	0.000386589464
8	1237	0.012	0.000274922055
8	1238	0.012	0.000163254646
8	1239	0.012	5.1587237e-005
8	1318	0.013	0.000995065664
8	1319	0.013	0.000882870016
8	1320	0.013	0.00093335167
8	1321	0.013	0.000819515365
8	1322	0.013	0.00070567906
8	1323	0.013	0.000939919828
8	1324	0.013	0.000770674368
8	1325	0.013	0.00065847872
8	1326	0.013	0.000591842755
8	1327	0.013	0.00047800645
8	1328	0.013	0.000364170145
8	1329	0.013	0.000828252419
8	1330	0.013	0.000546283072
8	1331	0.013	0.000434087424
8	1332	0.013	0.00025033384
8	1333	0.013	0.000136497535
8	1334	0.013	2.266123e-005
8	1335	0.013	0.00071658501
8	1336	0.013	0.000321891776
8	1337	0.013	0.000209696128
8	1338	0.013	0.000604917601
8	1339	0.013	9.750048e-005
8	1340	0.013	0.000493250192
8	1341	0.013	0.000381582783
8	1342	0.013	0.000269915374
8	1343	0.013	0.000158247965
8	1344	0.013	4.6580556e-005
8	1421	0.014	0.000985304832
8	1422	0.014	0.000873109184
8	1423	0.014	0.000908824925
8	1424	0.014	0.00079498862
8	1425	0.014	0.000681152315
8	1426	0.014	0.000934913147
8	1427	0.014	0.000760913536
8	1428	0.014	0.000648717888
8	1429	0.014	0.00056731601
8	1430	0.014	0.000453479705
8	1431	0.014	0.0003396434
8	1432	0.014	0.000823245738
8	1433	0.014	0.00053652224
8	1434	0.014	0.000424326592
8	1435	0.014	0.000225807095
8	1436	0.014	0.00011197079
8	1437	0.014	0.000711578329
8	1438	0.014	0.000312130944
8	1439	0.014	0.000199935296
8	1440	0.014	0.00059991092
8	1441	0.014	8.7739648e-005
8	1442	0.014	0.000488243511
8	1443	0.014	0.000376576102
8	1444	0.014	0.000264908693
8	1445	0.014	0.000153241284
8	1446	0.014	4.1573875e-005
8	1525	0.015	0.000975544
8	1526	0.015	0.000863348352
8	1527	0.015	0.000998134485
8	1528	0.015	0.00088429818
8	1529	0.015	0.000770461875
8	1530	0.015	0.000929906466
8	1531	0.015	0.000751152704
8	1532	0.015	0.000638957056
8	1533	0.015	0.00065662557
8	1534	0.015	0.000542789265
8	1535	0.015	0.00042895296
8	1536	0.015	0.000818239057
8	1537	0.015	0.000526761408
8	1538	0.015	0.00041456576
8	1539	0.015	0.000315116655
8	1540	0.015	0.00020128035
8	1541	0.015	8.7444045e-005
8	1542	0.015	0.000706571648
8	1543	0.015	0.000302370112
8	1544	0.015	0.000190174464
8	1545	0.015	0.000594904239
8	1546	0.015	7.7978816e-005
8	1547	0.015	0.00048323683
8	1548	0.015	0.000371569421
8	1549	0.015	0.000259902012
8	1550	0.015	0.000148234603
8	1551	0.015	3.6567194e-005
8	1630	0.016	0.000965783168
8	1631	0.016	0.00085358752
8	1632	0.016	0.00097360774
8	1633	0.016	0.000859771435
8	1634	0.016	0.00074593513
8	1635	0.016	0.000924899785
8	1636	0.016	0.000741391872
8	1637	0.016	0.000629196224
8	1638	0.016	0.000632098825
8	1639	0.016	0.00051826252
8	1640	0.016	0.000404426215
8	1641	0.016	0.000813232376
8	1642	0.016	0.000517000576
8	1643	0.016	0.000404804928
8	1644	0.016	0.00029058991
8	1645	0.016	0.000176753605
8	1646	0.016	6.29173e-005
8	1647	0.016	0.000701564967
8	1648	0.016	0.00029260928
8	1649	0.016	0.000180413632
8	1650	0.016	0.000589897558
8	1651	0.016	6.8217984e-005
8	1652	0.016	0.000478230149
8	1653	0.016	0.00036656274
8	1654	0.016	0.000254895331
8	1655	0.016	0.000143227922
8	1656	0.016	3.1560513e-005
8	1735	0.017	0.000956022336
8	1736	0.017	0.000843826688
8	1737	0.017	0.000949080995
8	1738	0.017	0.00083524469
8	1739	0.017	0.000721408385
8	1740	0.017	0.000919893104
8	1741	0.017	0.00073163104
8	1742	0.017	0.000619435392
8	1743	0.017	0.00060757208
8	1744	0.017	0.000493735775
8	1745	0.017	0.00037989947
8	1746	0.017	0.000808225695
8	1747	0.017	0.000507239744
8	1748	0.017	0.000395044096
8	1749	0.017	0.000266063165
8	1750	0.017	0.00015222686
8	1751	0.017	3.8390555e-005
8	1752	0.017	0.000696558286
8	1753	0.017	0.000282848448
8	1754	0.017	0.0001706528
8	1755	0.017	0.000584890877
8	1756	0.017	5.8457152e-005
8	1757	0.017	0.000473223468
8	1758	0.017	0.000361556059
8	1759	0.017	0.00024988865
8	1760	0.017	0.000138221241
8	1761	0.017	2.6553832e-005
8	1840	0.018	0.000946261504
8	1841	0.018	0.000834065856
8	1842	0.018	0.00092455425
8	1843	0.018	0.000810717945
8	1844	0.018	0.00069688164
8	1845	0.018	0.000914886423
8	1846	0.018	0.000721870208
8	1847	0.018	0.00060967456
8	1848	0.018	0.000583045335
8	1849	0.018	0.00046920903
8	1850	0.018	0.000355372725
8	1851	0.018	0.000803219014
8	1852	0.018	0.000497478912
8	1853	0.018	0.000385283264
8	1854	0.018	0.00024153642
8	1855	0.018	0.000127700115
8	1856	0.018	1.386381e-005
8	1857	0.018	0.000691551605
8	1858	0.018	0.000273087616
8	1859	0.018	0.000160891968
8	1860	0.018	0.000579884196
8	1861	0.018	4.869632e-005
8	1862	0.018	0.000468216787
8	1863	0.018	0.000356549378
8	1864	0.018	0.000244881969
8	1865	0.018	0.00013321456
8	1866	0.018	2.1547151e-005
8	1943	0.019	0.000936500672
8	1944	0.019	0.000824305024
8	1945	0.019	0.000900027505
8	1946	0.019	0.0007861912
8	1947	0.019	0.000672354895
8	1948	0.019	0.000909879742
8	1949	0.019	0.000712109376
8	1950	0.019	0.000599913728
8	1951	0.019	0.00055851859
8	1952	0.019	0.000444682285
8	1953	0.019	0.00033084598
8	1954	0.019	0.000798212333
8	1955	0.019	0.00048771808
8	1956	0.019	0.000375522432
8	1957	0.019	0.000217009675
8	1958	0.019	0.00010317337
8	1959	0.019	0.000686544924
8	1960	0.019	0.000263326784
8	1961	0.019	0.000151131136
8	1962	0.019	0.000574877515
8	1963	0.019	3.8935488e-005
8	1964	0.019	0.000463210106
8	1965	0.019	0.000351542697
8	1966	0.019	0.000239875288
8	1967	0.019	0.000128207879
8	1968	0.019	1.654047e-005
8	2047	0.02	0.00092673984
8	2048	0.02	0.000814544192
8	2049	0.02	0.000989337065
8	2050	0.02	0.00087550076
8	2051	0.02	0.000761664455
8	2052	0.02	0.000904873061
8	2053	0.02	0.000702348544
8	2054	0.02	0.000590152896
8	2055	0.02	0.00064782815
8	2056	0.02	0.000533991845
8	2057	0.02	0.00042015554
8	2058	0.02	0.000793205652
8	2059	0.02	0.000477957248
8	2060	0.02	0.0003657616
8	2061	0.02	0.000306319235
8	2062	0.02	0.00019248293
8	2063	0.02	7.8646625e-005
8	2064	0.02	0.000681538243
8	2065	0.02	0.000253565952
8	2066	0.02	0.000141370304
8	2067	0.02	0.000569870834
8	2068	0.02	2.9174656e-005
8	2069	0.02	0.000458203425
8	2070	0.02	0.000346536016
8	2071	0.02	0.000234868607
8	2072	0.02	0.000123201198
8	2073	0.02	1.1533789e-005
8	2152	0.021	0.000916979008
8	2153	0.021	0.00080478336
8	2154	0.021	0.00096481032
8	2155	0.021	0.000850974015
8	2156	0.021	0.00073713771
8	2157	0.021	0.00089986638
8	2158	0.021	0.000692587712
8	2159	0.021	0.000580392064
8	2160	0.021	0.000623301405
8	2161	0.021	0.0005094651
8	2162	0.021	0.000395628795
8	2163	0.021	0.000788198971
8	2164	0.021	0.000468196416
8	2165	0.021	0.000356000768
8	2166	0.021	0.00028179249
8	2167	0.021	0.000167956185
8	2168	0.021	5.411988e-005
8	2169	0.021	0.000676531562
8	2170	0.021	0.00024380512
8	2171	0.021	0.000131609472
8	2172	0.021	0.000564864153
8	2173	0.021	1.9413824e-005
8	2174	0.021	0.000453196744
8	2175	0.021	0.000341529335
8	2176	0.021	0.000229861926
8	2177	0.021	0.000118194517
8	2178	0.021	6.527108e-006
8	2257	0.022	0.000907218176
8	2258	0.022	0.000795022528
8	2259	0.022	0.000940283575
8	2260	0.022	0.00082644727
8	2261	0.022	0.000712610965
8	2262	0.022	0.000894859699
8	2263	0.022	0.00068282688
8	2264	0.022	0.000570631232
8	2265	0.022	0.00059877466
8	2266	0.022	0.000484938355
8	2267	0.022	0.00037110205
8	2268	0.022	0.00078319229
8	2269	0.022	0.000458435584
8	2270	0.022	0.000346239936
8	2271	0.022	0.000257265745
8	2272	0.022	0.00014342944
8	2273	0.022	2.9593135e-005
8	2274	0.022	0.000671524881
8	2275	0.022	0.000234044288
8	2276	0.022	0.00012184864
8	2277	0.022	0.000559857472
8	2278	0.022	9.652992e-006
8	2279	0.022	0.000448190063
8	2280	0.022	0.000336522654
8	2281	0.022	0.000224855245
8	2282	0.022	0.000113187836
8	2283	0.022	1.520427e-006
8	2356	0.023	0.000897457344
8	2357	0.023	0.000785261696
8	2358	0.023	0.00091575683
8	2359	0.023	0.000801920525
8	2360	0.023	0.00068808422
8	2361	0.023	0.000889853018
8	2362	0.023	0.000673066048
8	2363	0.023	0.0005608704
8	2364	0.023	0.000574247915
8	2365	0.023	0.00046041161
8	2366	0.023	0.000346575305
8	2367	0.023	0.000778185609
8	2368	0.023	0.000448674752
8	2369	0.023	0.000336479104
8	2370	0.023	0.000232739
8	2371	0.023	0.000118902695
8	2372	0.023	5.06639e-006
8	2373	0.023	0.0006665182
8	2374	0.023	0.000224283456
8	2375	0.023	0.000112087808
8	2376	0.023	0.000554850791
8	2377	0.023	0.000443183382
8	2378	0.023	0.000331515973
8	2379	0.023	0.000219848564
8	2380	0.023	0.000108181155
8	2457	0.024	0.00099989216
8	2458	0.024	0.000887696512
8	2459	0.024	0.000891230085
8	2460	0.024	0.00077739378
8	2461	0.024	0.000663557475
8	2462	0.024	0.000996513746
8	2463	0.024	0.000775500864
8	2464	0.024	0.000663305216
8	2465	0.024	0.00054972117
8	2466	0.024	0.000435884865
8	2467	0.024	0.00032204856
8	2468	0.024	0.000884846337
8	2469	0.024	0.000551109568
8	2470	0.024	0.00043891392
8	2471	0.024	0.000208212255
8	2472	0.024	9.437595e-005
8	2473	0.024	0.000773178928
8	2474	0.024	0.000326718272
8	2475	0.024	0.000214522624
8	2476	0.024	0.000661511519
8	2477	0.024	0.000102326976
8	2478	0.024	0.00054984411
8	2479	0.024	0.000438176701
8	2480	0.024	0.000326509292
8	2481	0.024	0.000214841883
8	2482	0.024	0.000103174474
8	2561	0.025	0.000990131328
8	2562	0.025	0.00087793568
8	2563	0.025	0.000980539645
8	2564	0.025	0.00086670334
8	2565	0.025	0.000752867035
8	2566	0.025	0.000991507065
8	2567	0.025	0.000765740032
8	2568	0.025	0.000653544384
8	2569	0.025	0.00063903073
8	2570	0.025	0.000525194425
8	2571	0.025	0.00041135812
8	2572	0.025	0.000879839656
8	2573	0.025	0.000541348736
8	2574	0.025	0.000429153088
8	2575	0.025	0.000297521815
8	2576	0.025	0.00018368551
8	2577	0.025	6.9849205e-005
8	2578	0.025	0.000768172247
8	2579	0.025	0.00031695744
8	2580	0.025	0.000204761792
8	2581	0.025	0.000656504838
8	2582	0.025	9.2566144e-005
8	2583	0.025	0.000544837429
8	2584	0.025	0.00043317002
8	2585	0.025	0.000321502611
8	2586	0.025	0.000209835202
8	2587	0.025	9.8167793e-005
8	2666	0.026	0.000980370496
8	2667	0.026	0.000868174848
8	2668	0.026	0.0009560129
8	2669	0.026	0.000842176595
8	2670	0.026	0.00072834029
8	2671	0.026	0.000986500384
8	2672	0.026	0.0007559792
8	2673	0.026	0.000643783552
8	2674	0.026	0.000614503985
8	2675	0.026	0.00050066768
8	2676	0.026	0.000386831375
8	2677	0.026	0.000874832975
8	2678	0.026	0.000531587904
8	2679	0.026	0.000419392256
8	2680	0.026	0.00027299507
8	2681	0.026	0.000159158765
8	2682	0.026	4.532246e-005
8	2683	0.026	0.000763165566
8	2684	0.026	0.000307196608
8	2685	0.026	0.00019500096
8	2686	0.026	0.000651498157
8	2687	0.026	8.2805312e-005
8	2688	0.026	0.000539830748
8	2689	0.026	0.000428163339
8	2690	0.026	0.00031649593
8	2691	0.026	0.000204828521
8	2692	0.026	9.3161112e-005
8	2771	0.027	0.000970609664
8	2772	0.027	0.000858414016
8	2773	0.027	0.000931486155
8	2774	0.027	0.00081764985
8	2775	0.027	0.000703813545
8	2776	0.027	0.000981493703
8	2777	0.027	0.000746218368
8	2778	0.027	0.00063402272
8	2779	0.027	0.00058997724
8	2780	0.027	0.000476140935
8	2781	0.027	0.00036230463
8	2782	0.027	0.000869826294
8	2783	0.027	0.000521827072
8	2784	0.027	0.000409631424
8	2785	0.027	0.000248468325
8	2786	0.027	0.00013463202
8	2787	0.027	2.0795715e-005
8	2788	0.027	0.000758158885
8	2789	0.027	0.000297435776
8	2790	0.027	0.000185240128
8	2791	0.027	0.000646491476
8	2792	0.027	7.304448e-005
8	2793	0.027	0.000534824067
8	2794	0.027	0.000423156658
8	2795	0.027	0.000311489249
8	2796	0.027	0.00019982184
8	2797	0.027	8.8154431e-005
8	2874	0.028	0.000960848832
8	2875	0.028	0.000848653184
8	2876	0.028	0.00090695941
8	2877	0.028	0.000793123105
8	2878	0.028	0.0006792868
8	2879	0.028	0.000976487022
8	2880	0.028	0.000736457536
8	2881	0.028	0.000624261888
8	2882	0.028	0.000565450495
8	2883	0.028	0.00045161419
8	2884	0.028	0.000337777885
8	2885	0.028	0.000864819613
8	2886	0.028	0.00051206624
8	2887	0.028	0.000399870592
8	2888	0.028	0.00022394158
8	2889	0.028	0.000110105275
8	2890	0.028	0.000753152204
8	2891	0.028	0.000287674944
8	2892	0.028	0.000175479296
8	2893	0.028	0.000641484795
8	2894	0.028	6.3283648e-005
8	2895	0.028	0.000529817386
8	2896	0.028	0.000418149977
8	2897	0.028	0.000306482568
8	2898	0.028	0.000194815159
8	2899	0.028	8.314775e-005
8	2978	0.029	0.000951088
8	2979	0.029	0.000838892352
8	2980	0.029	0.00099626897
8	2981	0.029	0.000882432665
8	2982	0.029	0.00076859636
8	2983	0.029	0.000971480341
8	2984	0.029	0.000726696704
8	2985	0.029	0.000614501056
8	2986	0.029	0.000654760055
8	2987	0.029	0.00054092375
8	2988	0.029	0.000427087445
8	2989	0.029	0.000859812932
8	2990	0.029	0.000502305408
8	2991	0.029	0.00039010976
8	2992	0.029	0.00031325114
8	2993	0.029	0.000199414835
8	2994	0.029	8.557853e-005
8	2995	0.029	0.000748145523
8	2996	0.029	0.000277914112
8	2997	0.029	0.000165718464
8	2998	0.029	0.000636478114
8	2999	0.029	5.3522816e-005
8	3000	0.029	0.000524810705
8	3001	0.029	0.000413143296
8	3002	0.029	0.000301475887
8	3003	0.029	0.000189808478
8	3004	0.029	7.8141069e-005
8	3083	0.03	0.000941327168
8	3084	0.03	0.00082913152
8	3085	0.03	0.000971742225
8	3086	0.03	0.00085790592
8	3087	0.03	0.000744069615
8	3088	0.03	0.00096647366
8	3089	0.03	0.000716935872
8	3090	0.03	0.000604740224
8	3091	0.03	0.00063023331
8	3092	0.03	0.000516397005
8	3093	0.03	0.0004025607
8	3094	0.03	0.000854806251
8	3095	0.03	0.000492544576
8	3096	0.03	0.000380348928
8	3097	0.03	0.000288724395
8	3098	0.03	0.00017488809
8	3099	0.03	6.1051785e-005
8	3100	0.03	0.000743138842
8	3101	0.03	0.00026815328
8	3102	0.03	0.000155957632
8	3103	0.03	0.000631471433
8	3104	0.03	4.3761984e-005
8	3105	0.03	0.000519804024
8	3106	0.03	0.000408136615
8	3107	0.03	0.000296469206
8	3108	0.03	0.000184801797
8	3109	0.03	7.3134388e-005
8	3188	0.031	0.000931566336
8	3189	0.031	0.000819370688
8	3190	0.031	0.00094721548
8	3191	0.031	0.000833379175
8	3192	0.031	0.00071954287
8	3193	0.031	0.000961466979
8	3194	0.031	0.00070717504
8	3195	0.031	0.000594979392
8	3196	0.031	0.000605706565
8	3197	0.031	0.00049187026
8	3198	0.031	0.000378033955
8	3199	0.031	0.00084979957
8	3200	0.031	0.000482783744
8	3201	0.031	0.000370588096
8	3202	0.031	0.00026419765
8	3203	0.031	0.000150361345
8	3204	0.031	3.652504e-005
8	3205	0.031	0.000738132161
8	3206	0.031	0.000258392448
8	3207	0.031	0.0001461968
8	3208	0.031	0.000626464752
8	3209	0.031	3.4001152e-005
8	3210	0.031	0.000514797343
8	3211	0.031	0.000403129934
8	3212	0.031	0.000291462525
8	3213	0.031	0.000179795116
8	3214	0.031	6.8127707e-005
8	3293	0.032	0.000921805504
8	3294	0.032	0.000809609856
8	3295	0.032	0.000922688735
8	3296	0.032	0.00080885243
8	3297	0.032	0.000695016125
8	3298	0.032	0.000956460298
8	3299	0.032	0.000697414208
8	3300	0.032	0.00058521856
8	3301	0.032	0.00058117982
8	3302	0.032	0.000467343515
8	3303	0.032	0.00035350721
8	3304	0.032	0.000844792889
8	3305	0.032	0.000473022912
8	3306	0.032	0.000360827264
8	3307	0.032	0.000239670905
8	3308	0.032	0.0001258346
8	3309	0.032	1.1998295e-005
8	3310	0.032	0.00073312548
8	3311	0.032	0.000248631616
8	3312	0.032	0.000136435968
8	3313	0.032	0.000621458071
8	3314	0.032	2.424032e-005
8	3315	0.032	0.000509790662
8	3316	0.032	0.000398123253
8	3317	0.032	0.000286455844
8	3318	0.032	0.000174788435
8	3319	0.032	6.3121026e-005
8	3396	0.033	0.000912044672
8	3397	0.033	0.000799849024
8	3398	0.033	0.00089816199
8	3399	0.033	0.000784325685
8	3400	0.033	0.00067048938
8	3401	0.033	0.000951453617
8	3402	0.033	0.000687653376
8	3403	0.033	0.000575457728
8	3404	0.033	0.000556653075
8	3405	0.033	0.00044281677
8	3406	0.033	0.000328980465
8	3407	0.033	0.000839786208
8	3408	0.033	0.00046326208
8	3409	0.033	0.000351066432
8	3410	0.033	0.00021514416
8	3411	0.033	0.000101307855
8	3412	0.033	0.000728118799
8	3413	0.033	0.000238870784
8	3414	0.033	0.000126675136
8	3415	0.033	0.00061645139
8	3416	0.033	1.4479488e-005
8	3417	0.033	0.000504783981
8	3418	0.033	0.000393116572
8	3419	0.033	0.000281449163
8	3420	0.033	0.000169781754
8	3421	0.033	5.8114345e-005
8	3500	0.034	0.00090228384
8	3501	0.034	0.000790088192
8	3502	0.034	0.00098747155
8	3503	0.034	0.000873635245
8	3504	0.034	0.00075979894
8	3505	0.034	0.000946446936
8	3506	0.034	0.000677892544
8	3507	0.034	0.000565696896
8	3508	0.034	0.000645962635
8	3509	0.034	0.00053212633
8	3510	0.034	0.000418290025
8	3511	0.034	0.000834779527
8	3512	0.034	0.000453501248
8	3513	0.034	0.0003413056
8	3514	0.034	0.00030445372
8	3515	0.034	0.000190617415
8	3516	0.034	7.678111e-005
8	3517	0.034	0.000723112118
8	3518	0.034	0.000229109952
8	3519	0.034	0.000116914304
8	3520	0.034	0.000611444709
8	3521	0.034	4.718656e-006
8	3522	0.034	0.0004997773
8	3523	0.034	0.000388109891
8	3524	0.034	0.000276442482
8	3525	0.034	0.000164775073
8	3526	0.034	5.3107664e-005
8	3602	0.035	0.000892523008
8	3603	0.035	0.00078032736
8	3604	0.035	0.000962944805
8	3605	0.035	0.0008491085
8	3606	0.035	0.000735272195
8	3607	0.035	0.000941440255
8	3608	0.035	0.000668131712
8	3609	0.035	0.000555936064
8	3610	0.035	0.00062143589
8	3611	0.035	0.000507599585
8	3612	0.035	0.00039376328
8	3613	0.035	0.000829772846
8	3614	0.035	0.000443740416
8	3615	0.035	0.000331544768
8	3616	0.035	0.000279926975
8	3617	0.035	0.00016609067
8	3618	0.035	5.2254365e-005
8	3619	0.035	0.000718105437
8	3620	0.035	0.00021934912
8	3621	0.035	0.000107153472
8	3622	0.035	0.000606438028
8	3623	0.035	0.000494770619
8	3624	0.035	0.00038310321
8	3625	0.035	0.000271435801
8	3626	0.035	0.000159768392
8	3627	0.035	4.8100983e-005
8	3706	0.036	0.000994957824
8	3707	0.036	0.000882762176
8	3708	0.036	0.00093841806
8	3709	0.036	0.000824581755
8	3710	0.036	0.00071074545
8	3711	0.036	0.000936433574
8	3712	0.036	0.000770566528
8	3713	0.036	0.00065837088
8	3714	0.036	0.000596909145
8	3715	0.036	0.00048307284
8	3716	0.036	0.000369236535
8	3717	0.036	0.000824766165
8	3718	0.036	0.000546175232
8	3719	0.036	0.000433979584
8	3720	0.036	0.00025540023
8	3721	0.036	0.000141563925
8	3722	0.036	2.772762e-005
8	3723	0.036	0.000713098756
8	3724	0.036	0.000321783936
8	3725	0.036	0.000209588288
8	3726	0.036	0.000601431347
8	3727	0.036	9.739264e-005
8	3728	0.036	0.000489763938
8	3729	0.036	0.000378096529
8	3730	0.036	0.00026642912
8	3731	0.036	0.000154761711
8	3732	0.036	4.3094302e-005
8	3811	0.037	0.000985196992
8	3812	0.037	0.000873001344
8	3813	0.037	0.000913891315
8	3814	0.037	0.00080005501
8	3815	0.037	0.000686218705
8	3816	0.037	0.000931426893
8	3817	0.037	0.000760805696
8	3818	0.037	0.000648610048
8	3819	0.037	0.0005723824
8	3820	0.037	0.000458546095
8	3821	0.037	0.00034470979
8	3822	0.037	0.000819759484
8	3823	0.037	0.0005364144
8	3824	0.037	0.000424218752
8	3825	0.037	0.000230873485
8	3826	0.037	0.00011703718
8	3827	0.037	3.200875e-006
8	3828	0.037	0.000708092075
8	3829	0.037	0.000312023104
8	3830	0.037	0.000199827456
8	3831	0.037	0.000596424666
8	3832	0.037	8.7631808e-005
8	3833	0.037	0.000484757257
8	3834	0.037	0.000373089848
8	3835	0.037	0.000261422439
8	3836	0.037	0.00014975503
8	3837	0.037	3.8087621e-005
8	3914	0.038	0.00097543616
8	3915	0.038	0.000863240512
8	3916	0.038	0.00088936457
8	3917	0.038	0.000775528265
8	3918	0.038	0.00066169196
8	3919	0.038	0.000926420212
8	3920	0.038	0.000751044864
8	3921	0.038	0.000638849216
8	3922	0.038	0.000547855655
8	3923	0.038	0.00043401935
8	3924	0.038	0.000320183045
8	3925	0.038	0.000814752803
8	3926	0.038	0.000526653568
8	3927	0.038	0.00041445792
8	3928	0.038	0.00020634674
8	3929	0.038	9.2510435e-005
8	3930	0.038	0.000703085394
8	3931	0.038	0.000302262272
8	3932	0.038	0.000190066624
8	3933	0.038	0.000591417985
8	3934	0.038	7.7870976e-005
8	3935	0.038	0.000479750576
8	3936	0.038	0.000368083167
8	3937	0.038	0.000256415758
8	3938	0.038	0.000144748349
8	3939	0.038	3.308094e-005
8	4018	0.039	0.000965675328
8	4019	0.039	0.00085347968
8	4020	0.039	0.00097867413
8	4021	0.039	0.000864837825
8	4022	0.039	0.00075100152
8	4023	0.039	0.000921413531
8	4024	0.039	0.000741284032
8	4025	0.039	0.000629088384
8	4026	0.039	0.000637165215
8	4027	0.039	0.00052332891
8	4028	0.039	0.000409492605
8	4029	0.039	0.000809746122
8	4030	0.039	0.000516892736
8	4031	0.039	0.000404697088
8	4032	0.039	0.0002956563
8	4033	0.039	0.000181819995
8	4034	0.039	6.798369e-005
8	4035	0.039	0.000698078713
8	4036	0.039	0.00029250144
8	4037	0.039	0.000180305792
8	4038	0.039	0.000586411304
8	4039	0.039	6.8110144e-005
8	4040	0.039	0.000474743895
8	4041	0.039	0.000363076486
8	4042	0.039	0.000251409077
8	4043	0.039	0.000139741668
8	4044	0.039	2.8074259e-005
8	4123	0.04	0.000955914496
8	4124	0.04	0.000843718848
8	4125	0.04	0.000954147385
8	4126	0.04	0.00084031108
8	4127	0.04	0.000726474775
8	4128	0.04	0.00091640685
8	4129	0.04	0.0007315232
8	4130	0.04	0.000619327552
8	4131	0.04	0.00061263847
8	4132	0.04	0.000498802165
8	4133	0.04	0.00038496586
8	4134	0.04	0.000804739441
8	4135	0.04	0.000507131904
8	4136	0.04	0.000394936256
8	4137	0.04	0.000271129555
8	4138	0.04	0.00015729325
8	4139	0.04	4.3456945e-005
8	4140	0.04	0.000693072032
8	4141	0.04	0.000282740608
8	4142	0.04	0.00017054496
8	4143	0.04	0.000581404623
8	4144	0.04	5.8349312e-005
8	4145	0.04	0.000469737214
8	4146	0.04	0.000358069805
8	4147	0.04	0.000246402396
8	4148	0.04	0.000134734987
8	4149	0.04	2.3067578e-005
8	4228	0.041	0.000946153664
8	4229	0.041	0.000833958016
8	4230	0.041	0.00092962064
8	4231	0.041	0.000815784335
8	4232	0.041	0.00070194803
8	4233	0.041	0.000911400169
8	4234	0.041	0.000721762368
8	4235	0.041	0.00060956672
8	4236	0.041	0.000588111725
8	4237	0.041	0.00047427542
8	4238	0.041	0.000360439115
8	4239	0.041	0.00079973276
8	4240	0.041	0.000497371072
8	4241	0.041	0.000385175424
8	4242	0.041	0.00024660281
8	4243	0.041	0.000132766505
8	4244	0.041	1.89302e-005
8	4245	0.041	0.000688065351
8	4246	0.041	0.000272979776
8	4247	0.041	0.000160784128
8	4248	0.041	0.000576397942
8	4249	0.041	4.858848e-005
8	4250	0.041	0.000464730533
8	4251	0.041	0.000353063124
8	4252	0.041	0.000241395715
8	4253	0.041	0.000129728306
8	4254	0.041	1.8060897e-005
8	4331	0.042	0.000936392832
8	4332	0.042	0.000824197184
8	4333	0.042	0.000905093895
8	4334	0.042	0.00079125759
8	4335	0.042	0.000677421285
8	4336	0.042	0.000906393488
8	4337	0.042	0.000712001536
8	4338	0.042	0.000599805888
8	4339	0.042	0.00056358498
8	4340	0.042	0.000449748675
8	4341	0.042	0.00033591237
8	4342	0.042	0.000794726079
8	4343	0.042	0.00048761024
8	4344	0.042	0.000375414592
8	4345	0.042	0.000222076065
8	4346	0.042	0.00010823976
8	4347	0.042	0.00068305867
8	4348	0.042	0.000263218944
8	4349	0.042	0.000151023296
8	4350	0.042	0.000571391261
8	4351	0.042	3.8827648e-005
8	4352	0.042	0.000459723852
8	4353	0.042	0.000348056443
8	4354	0.042	0.000236389034
8	4355	0.042	0.000124721625
8	4356	0.042	1.3054216e-005
8	4435	0.043	0.000926632
8	4436	0.043	0.000814436352
8	4437	0.043	0.000994403455
8	4438	0.043	0.00088056715
8	4439	0.043	0.000766730845
8	4440	0.043	0.000901386807
8	4441	0.043	0.000702240704
8	4442	0.043	0.000590045056
8	4443	0.043	0.00065289454
8	4444	0.043	0.000539058235
8	4445	0.043	0.00042522193
8	4446	0.043	0.000789719398
8	4447	0.043	0.000477849408
8	4448	0.043	0.00036565376
8	4449	0.043	0.000311385625
8	4450	0.043	0.00019754932
8	4451	0.043	8.3713015e-005
8	4452	0.043	0.000678051989
8	4453	0.043	0.000253458112
8	4454	0.043	0.000141262464
8	4455	0.043	0.00056638458
8	4456	0.043	2.9066816e-005
8	4457	0.043	0.000454717171
8	4458	0.043	0.000343049762
8	4459	0.043	0.000231382353
8	4460	0.043	0.000119714944
8	4461	0.043	8.047535e-006
8	4540	0.044	0.000916871168
8	4541	0.044	0.00080467552
8	4542	0.044	0.00096987671
8	4543	0.044	0.000856040405
8	4544	0.044	0.0007422041
8	4545	0.044	0.000896380126
8	4546	0.044	0.000692479872
8	4547	0.044	0.000580284224
8	4548	0.044	0.000628367795
8	4549	0.044	0.00051453149
8	4550	0.044	0.000400695185
8	4551	0.044	0.000784712717
8	4552	0.044	0.000468088576
8	4553	0.044	0.000355892928
8	4554	0.044	0.00028685888
8	4555	0.044	0.000173022575
8	4556	0.044	5.918627e-005
8	4557	0.044	0.000673045308
8	4558	0.044	0.00024369728
8	4559	0.044	0.000131501632
8	4560	0.044	0.000561377899
8	4561	0.044	1.9305984e-005
8	4562	0.044	0.00044971049
8	4563	0.044	0.000338043081
8	4564	0.044	0.000226375672
8	4565	0.044	0.000114708263
8	4566	0.044	3.040854e-006
8	4642	0.045	0.000907110336
8	4643	0.045	0.000794914688
8	4644	0.045	0.000945349965
8	4645	0.045	0.00083151366
8	4646	0.045	0.000717677355
8	4647	0.045	0.000891373445
8	4648	0.045	0.00068271904
8	4649	0.045	0.000570523392
8	4650	0.045	0.00060384105
8	4651	0.045	0.000490004745
8	4652	0.045	0.00037616844
8	4653	0.045	0.000779706036
8	4654	0.045	0.000458327744
8	4655	0.045	0.000346132096
8	4656	0.045	0.000262332135
8	4657	0.045	0.00014849583
8	4658	0.045	3.4659525e-005
8	4659	0.045	0.000668038627
8	4660	0.045	0.000233936448
8	4661	0.045	0.0001217408
8	4662	0.045	0.000556371218
8	4663	0.045	9.545152e-006
8	4664	0.045	0.000444703809
8	4665	0.045	0.0003330364
8	4666	0.045	0.000221368991
8	4667	0.045	0.000109701582
8	4743	0.046	0.000897349504
8	4744	0.046	0.000785153856
8	4745	0.046	0.00092082322
8	4746	0.046	0.000806986915
8	4747	0.046	0.00069315061
8	4748	0.046	0.000998034173
8	4749	0.046	0.000672958208
8	4750	0.046	0.00056076256
8	4751	0.046	0.000579314305
8	4752	0.046	0.000465478
8	4753	0.046	0.000351641695
8	4754	0.046	0.000886366764
8	4755	0.046	0.000448566912
8	4756	0.046	0.000336371264
8	4757	0.046	0.00023780539
8	4758	0.046	0.000123969085
8	4759	0.046	1.013278e-005
8	4760	0.046	0.000774699355
8	4761	0.046	0.000224175616
8	4762	0.046	0.000111979968
8	4763	0.046	0.000663031946
8	4764	0.046	0.000551364537
8	4765	0.046	0.000439697128
8	4766	0.046	0.000328029719
8	4767	0.046	0.00021636231
8	4768	0.046	0.000104694901
8	4845	0.047	0.00099978432
8	4846	0.047	0.000887588672
8	4847	0.047	0.000896296475
8	4848	0.047	0.00078246017
8	4849	0.047	0.000668623865
8	4850	0.047	0.000993027492
8	4851	0.047	0.000775393024
8	4852	0.047	0.000663197376
8	4853	0.047	0.00055478756
8	4854	0.047	0.000440951255
8	4855	0.047	0.00032711495
8	4856	0.047	0.000881360083
8	4857	0.047	0.000551001728
8	4858	0.047	0.00043880608
8	4859	0.047	0.000213278645
8	4860	0.047	9.944234e-005
8	4861	0.047	0.000769692674
8	4862	0.047	0.000326610432
8	4863	0.047	0.000214414784
8	4864	0.047	0.000658025265
8	4865	0.047	0.000102219136
8	4866	0.047	0.000546357856
8	4867	0.047	0.000434690447
8	4868	0.047	0.000323023038
8	4869	0.047	0.000211355629
8	4870	0.047	9.968822e-005
8	4949	0.048	0.000990023488
8	4950	0.048	0.00087782784
8	4951	0.048	0.000985606035
8	4952	0.048	0.00087176973
8	4953	0.048	0.000757933425
8	4954	0.048	0.000988020811
8	4955	0.048	0.000765632192
8	4956	0.048	0.000653436544
8	4957	0.048	0.00064409712
8	4958	0.048	0.000530260815
8	4959	0.048	0.00041642451
8	4960	0.048	0.000876353402
8	4961	0.048	0.000541240896
8	4962	0.048	0.000429045248
8	4963	0.048	0.000302588205
8	4964	0.048	0.0001887519
8	4965	0.048	7.4915595e-005
8	4966	0.048	0.000764685993
8	4967	0.048	0.0003168496
8	4968	0.048	0.000204653952
8	4969	0.048	0.000653018584
8	4970	0.048	9.2458304e-005
8	4971	0.048	0.000541351175
8	4972	0.048	0.000429683766
8	4973	0.048	0.000318016357
8	4974	0.048	0.000206348948
8	4975	0.048	9.4681539e-005
8	5054	0.049	0.000980262656
8	5055	0.049	0.000868067008
8	5056	0.049	0.00096107929
8	5057	0.049	0.000847242985
8	5058	0.049	0.00073340668
8	5059	0.049	0.00098301413
8	5060	0.049	0.00075587136
8	5061	0.049	0.000643675712
8	5062	0.049	0.000619570375
8	5063	0.049	0.00050573407
8	5064	0.049	0.000391897765
8	5065	0.049	0.000871346721
8	5066	0.049	0.000531480064
8	5067	0.049	0.000419284416
8	5068	0.049	0.00027806146
8	5069	0.049	0.000164225155
8	5070	0.049	5.038885e-005
8	5071	0.049	0.000759679312
8	5072	0.049	0.000307088768
8	5073	0.049	0.00019489312
8	5074	0.049	0.000648011903
8	5075	0.049	8.2697472e-005
8	5076	0.049	0.000536344494
8	5077	0.049	0.000424677085
8	5078	0.049	0.000313009676
8	5079	0.049	0.000201342267
8	5080	0.049	8.9674858e-005
8	5159	0.05	0.000970501824
8	5160	0.05	0.000858306176
8	5161	0.05	0.000936552545
8	5162	0.05	0.00082271624
8	5163	0.05	0.000708879935
8	5164	0.05	0.000978007449
8	5165	0.05	0.000746110528
8	5166	0.05	0.00063391488
8	5167	0.05	0.00059504363
8	5168	0.05	0.000481207325
8	5169	0.05	0.00036737102
8	5170	0.05	0.00086634004
8	5171	0.05	0.000521719232
8	5172	0.05	0.000409523584
8	5173	0.05	0.000253534715
8	5174	0.05	0.00013969841
8	5175	0.05	2.5862105e-005
8	5176	0.05	0.000754672631
8	5177	0.05	0.000297327936
8	5178	0.05	0.000185132288
8	5179	0.05	0.000643005222
8	5180	0.05	7.293664e-005
8	5181	0.05	0.000531337813
8	5182	0.05	0.000419670404
8	5183	0.05	0.000308002995
8	5184	0.05	0.000196335586
8	5185	0.05	8.4668177e-005
8	5264	0.051	0.000960740992
8	5265	0.051	0.000848545344
8	5266	0.051	0.0009120258
8	5267	0.051	0.000798189495
8	5268	0.051	0.00068435319
8	5269	0.051	0.000973000768
8	5270	0.051	0.000736349696
8	5271	0.051	0.000624154048
8	5272	0.051	0.000570516885
8	5273	0.051	0.00045668058
8	5274	0.051	0.000342844275
8	5275	0.051	0.000861333359
8	5276	0.051	0.0005119584
8	5277	0.051	0.000399762752
8	5278	0.051	0.00022900797
8	5279	0.051	0.000115171665
8	5280	0.051	1.33536e-006
8	5281	0.051	0.00074966595
8	5282	0.051	0.000287567104
8	5283	0.051	0.000175371456
8	5284	0.051	0.000637998541
8	5285	0.051	6.3175808e-005
8	5286	0.051	0.000526331132
8	5287	0.051	0.000414663723
8	5288	0.051	0.000302996314
8	5289	0.051	0.000191328905
8	5290	0.051	7.9661496e-005
8	5367	0.052	0.00095098016
8	5368	0.052	0.000838784512
8	5369	0.052	0.000887499055
8	5370	0.052	0.00077366275
8	5371	0.052	0.000659826445
8	5372	0.052	0.000967994087
8	5373	0.052	0.000726588864
8	5374	0.052	0.000614393216
8	5375	0.052	0.00054599014
8	5376	0.052	0.000432153835
8	5377	0.052	0.00031831753
8	5378	0.052	0.000856326678
8	5379	0.052	0.000502197568
8	5380	0.052	0.00039000192
8	5381	0.052	0.000204481225
8	5382	0.052	9.064492e-005
8	5383	0.052	0.000744659269
8	5384	0.052	0.000277806272
8	5385	0.052	0.000165610624
8	5386	0.052	0.00063299186
8	5387	0.052	5.3414976e-005
8	5388	0.052	0.000521324451
8	5389	0.052	0.000409657042
8	5390	0.052	0.000297989633
8	5391	0.052	0.000186322224
8	5392	0.052	7.4654815e-005
8	5471	0.053	0.000941219328
8	5472	0.053	0.00082902368
8	5473	0.053	0.000976808615
8	5474	0.053	0.00086297231
8	5475	0.053	0.000749136005
8	5476	0.053	0.000962987406
8	5477	0.053	0.000716828032
8	5478	0.053	0.000604632384
8	5479	0.053	0.0006352997
8	5480	0.053	0.000521463395
8	5481	0.053	0.00040762709
8	5482	0.053	0.000851319997
8	5483	0.053	0.000492436736
8	5484	0.053	0.000380241088
8	5485	0.053	0.000293790785
8	5486	0.053	0.00017995448
8	5487	0.053	6.6118175e-005
8	5488	0.053	0.000739652588
8	5489	0.053	0.00026804544
8	5490	0.053	0.000155849792
8	5491	0.053	0.000627985179
8	5492	0.053	4.3654144e-005
8	5493	0.053	0.00051631777
8	5494	0.053	0.000404650361
8	5495	0.053	0.000292982952
8	5496	0.053	0.000181315543
8	5497	0.053	6.9648134e-005
8	5576	0.054	0.000931458496
8	5577	0.054	0.000819262848
8	5578	0.054	0.00095228187
8	5579	0.054	0.000838445565
8	5580	0.054	0.00072460926
8	5581	0.054	0.000957980725
8	5582	0.054	0.0007070672
8	5583	0.054	0.000594871552
8	5584	0.054	0.000610772955
8	5585	0.054	0.00049693665
8	5586	0.054	0.000383100345
8	5587	0.054	0.000846313316
8	5588	0.054	0.000482675904
8	5589	0.054	0.000370480256
8	5590	0.054	0.00026926404
8	5591	0.054	0.000155427735
8	5592	0.054	4.159143e-005
8	5593	0.054	0.000734645907
8	5594	0.054	0.000258284608
8	5595	0.054	0.00014608896
8	5596	0.054	0.000622978498
8	5597	0.054	3.3893312e-005
8	5598	0.054	0.000511311089
8	5599	0.054	0.00039964368
8	5600	0.054	0.000287976271
8	5601	0.054	0.000176308862
8	5602	0.054	6.4641453e-005
8	5681	0.055	0.000921697664
8	5682	0.055	0.000809502016
8	5683	0.055	0.000927755125
8	5684	0.055	0.00081391882
8	5685	0.055	0.000700082515
8	5686	0.055	0.000952974044
8	5687	0.055	0.000697306368
8	5688	0.055	0.00058511072
8	5689	0.055	0.00058624621
8	5690	0.055	0.000472409905
8	5691	0.055	0.0003585736
8	5692	0.055	0.000841306635
8	5693	0.055	0.000472915072
8	5694	0.055	0.000360719424
8	5695	0.055	0.000244737295
8	5696	0.055	0.00013090099
8	5697	0.055	1.7064685e-005
8	5698	0.055	0.000729639226
8	5699	0.055	0.000248523776
8	5700	0.055	0.000136328128
8	5701	0.055	0.000617971817
8	5702	0.055	2.413248e-005
8	5703	0.055	0.000506304408
8	5704	0.055	0.000394636999
8	5705	0.055	0.00028296959
8	5706	0.055	0.000171302181
8	5707	0.055	5.9634772e-005
8	5784	0.056	0.000911936832
8	5785	0.056	0.000799741184
8	5786	0.056	0.00090322838
8	5787	0.056	0.000789392075
8	5788	0.056	0.00067555577
8	5789	0.056	0.000947967363
8	5790	0.056	0.000687545536
8	5791	0.056	0.000575349888
8	5792	0.056	0.000561719465
8	5793	0.056	0.00044788316
8	5794	0.056	0.000334046855
8	5795	0.056	0.000836299954
8	5796	0.056	0.00046315424
8	5797	0.056	0.000350958592
8	5798	0.056	0.00022021055
8	5799	0.056	0.000106374245
8	5800	0.056	0.000724632545
8	5801	0.056	0.000238762944
8	5802	0.056	0.000126567296
8	5803	0.056	0.000612965136
8	5804	0.056	1.4371648e-005
8	5805	0.056	0.000501297727
8	5806	0.056	0.000389630318
8	5807	0.056	0.000277962909
8	5808	0.056	0.0001662955
8	5809	0.056	5.4628091e-005
8	5888	0.057	0.000902176
8	5889	0.057	0.000789980352
8	5890	0.057	0.00099253794
8	5891	0.057	0.000878701635
8	5892	0.057	0.00076486533
8	5893	0.057	0.000942960682
8	5894	0.057	0.000677784704
8	5895	0.057	0.000565589056
8	5896	0.057	0.000651029025
8	5897	0.057	0.00053719272
8	5898	0.057	0.000423356415
8	5899	0.057	0.000831293273
8	5900	0.057	0.000453393408
8	5901	0.057	0.00034119776
8	5902	0.057	0.00030952011
8	5903	0.057	0.000195683805
8	5904	0.057	8.18475e-005
8	5905	0.057	0.000719625864
8	5906	0.057	0.000229002112
8	5907	0.057	0.000116806464
8	5908	0.057	0.000607958455
8	5909	0.057	4.610816e-006
8	5910	0.057	0.000496291046
8	5911	0.057	0.000384623637
8	5912	0.057	0.000272956228
8	5913	0.057	0.000161288819
8	5914	0.057	4.962141e-005
8	5990	0.058	0.000892415168
8	5991	0.058	0.00078021952
8	5992	0.058	0.000968011195
8	5993	0.058	0.00085417489
8	5994	0.058	0.000740338585
8	5995	0.058	0.000937954001
8	5996	0.058	0.000668023872
8	5997	0.058	0.000555828224
8	5998	0.058	0.00062650228
8	5999	0.058	0.000512665975
8	6000	0.058	0.00039882967
8	6001	0.058	0.000826286592
8	6002	0.058	0.000443632576
8	6003	0.058	0.000331436928
8	6004	0.058	0.000284993365
8	6005	0.058	0.00017115706
8	6006	0.058	5.7320755e-005
8	6007	0.058	0.000714619183
8	6008	0.058	0.00021924128
8	6009	0.058	0.000107045632
8	6010	0.058	0.000602951774
8	6011	0.058	0.000491284365
8	6012	0.058	0.000379616956
8	6013	0.058	0.000267949547
8	6014	0.058	0.000156282138
8	6015	0.058	4.4614729e-005
8	6094	0.059	0.000994849984
8	6095	0.059	0.000882654336
8	6096	0.059	0.00094348445
8	6097	0.059	0.000829648145
8	6098	0.059	0.00071581184
8	6099	0.059	0.00093294732
8	6100	0.059	0.000770458688
8	6101	0.059	0.00065826304
8	6102	0.059	0.000601975535
8	6103	0.059	0.00048813923
8	6104	0.059	0.000374302925
8	6105	0.059	0.000821279911
8	6106	0.059	0.000546067392
8	6107	0.059	0.000433871744
8	6108	0.059	0.00026046662
8	6109	0.059	0.000146630315
8	6110	0.059	3.279401e-005
8	6111	0.059	0.000709612502
8	6112	0.059	0.000321676096
8	6113	0.059	0.000209480448
8	6114	0.059	0.000597945093
8	6115	0.059	9.72848e-005
8	6116	0.059	0.000486277684
8	6117	0.059	0.000374610275
8	6118	0.059	0.000262942866
8	6119	0.059	0.000151275457
8	6120	0.059	3.9608048e-005
8	6199	0.06	0.000985089152
8	6200	0.06	0.000872893504
8	6201	0.06	0.000918957705
8	6202	0.06	0.0008051214
8	6203	0.06	0.000691285095
8	6204	0.06	0.000927940639
8	6205	0.06	0.000760697856
8	6206	0.06	0.000648502208
8	6207	0.06	0.00057744879
8	6208	0.06	0.000463612485
8	6209	0.06	0.00034977618
8	6210	0.06	0.00081627323
8	6211	0.06	0.00053630656
8	6212	0.06	0.000424110912
8	6213	0.06	0.000235939875
8	6214	0.06	0.00012210357
8	6215	0.06	8.267265e-006
8	6216	0.06	0.000704605821
8	6217	0.06	0.000311915264
8	6218	0.06	0.000199719616
8	6219	0.06	0.000592938412
8	6220	0.06	8.7523968e-005
8	6221	0.06	0.000481271003
8	6222	0.06	0.000369603594
8	6223	0.06	0.000257936185
8	6224	0.06	0.000146268776
8	6225	0.06	3.4601367e-005
8	6302	0.061	0.00097532832
8	6303	0.061	0.000863132672
8	6304	0.061	0.00089443096
8	6305	0.061	0.000780594655
8	6306	0.061	0.00066675835
8	6307	0.061	0.000922933958
8	6308	0.061	0.000750937024
8	6309	0.061	0.000638741376
8	6310	0.061	0.000552922045
8	6311	0.061	0.00043908574
8	6312	0.061	0.000325249435
8	6313	0.061	0.000811266549
8	6314	0.061	0.000526545728
8	6315	0.061	0.00041435008
8	6316	0.061	0.00021141313
8	6317	0.061	9.7576825e-005
8	6318	0.061	0.00069959914
8	6319	0.061	0.000302154432
8	6320	0.061	0.000189958784
8	6321	0.061	0.000587931731
8	6322	0.061	7.7763136e-005
8	6323	0.061	0.000476264322
8	6324	0.061	0.000364596913
8	6325	0.061	0.000252929504
8	6326	0.061	0.000141262095
8	6327	0.061	2.9594686e-005
8	6406	0.062	0.000965567488
8	6407	0.062	0.00085337184
8	6408	0.062	0.00098374052
8	6409	0.062	0.000869904215
8	6410	0.062	0.00075606791
8	6411	0.062	0.000917927277
8	6412	0.062	0.000741176192
8	6413	0.062	0.000628980544
8	6414	0.062	0.000642231605
8	6415	0.062	0.0005283953
8	6416	0.062	0.000414558995
8	6417	0.062	0.000806259868
8	6418	0.062	0.000516784896
8	6419	0.062	0.000404589248
8	6420	0.062	0.00030072269
8	6421	0.062	0.000186886385
8	6422	0.062	7.305008e-005
8	6423	0.062	0.000694592459
8	6424	0.062	0.0002923936
8	6425	0.062	0.000180197952
8	6426	0.062	0.00058292505
8	6427	0.062	6.8002304e-005
8	6428	0.062	0.000471257641
8	6429	0.062	0.000359590232
8	6430	0.062	0.000247922823
8	6431	0.062	0.000136255414
8	6432	0.062	2.4588005e-005
8	6511	0.063	0.000955806656
8	6512	0.063	0.000843611008
8	6513	0.063	0.000959213775
8	6514	0.063	0.00084537747
8	6515	0.063	0.000731541165
8	6516	0.063	0.000912920596
8	6517	0.063	0.00073141536
8	6518	0.063	0.000619219712
8	6519	0.063	0.00061770486
8	6520	0.063	0.000503868555
8	6521	0.063	0.00039003225
8	6522	0.063	0.000801253187
8	6523	0.063	0.000507024064
8	6524	0.063	0.000394828416
8	6525	0.063	0.000276195945
8	6526	0.063	0.00016235964
8	6527	0.063	4.8523335e-005
8	6528	0.063	0.000689585778
8	6529	0.063	0.000282632768
8	6530	0.063	0.00017043712
8	6531	0.063	0.000577918369
8	6532	0.063	5.8241472e-005
8	6533	0.063	0.00046625096
8	6534	0.063	0.000354583551
8	6535	0.063	0.000242916142
8	6536	0.063	0.000131248733
8	6537	0.063	1.9581324e-005
8	6616	0.064	0.000946045824
8	6617	0.064	0.000833850176
8	6618	0.064	0.00093468703
8	6619	0.064	0.000820850725
8	6620	0.064	0.00070701442
8	6621	0.064	0.000907913915
8	6622	0.064	0.000721654528
8	6623	0.064	0.00060945888
8	6624	0.064	0.000593178115
8	6625	0.064	0.00047934181
8	6626	0.064	0.000365505505
8	6627	0.064	0.000796246506
8	6628	0.064	0.000497263232
8	6629	0.064	0.000385067584
8	6630	0.064	0.0002516692
8	6631	0.064	0.000137832895
8	6632	0.064	2.399659e-005
8	6633	0.064	0.000684579097
8	6634	0.064	0.000272871936
8	6635	0.064	0.000160676288
8	6636	0.064	0.000572911688
8	6637	0.064	4.848064e-005
8	6638	0.064	0.000461244279
8	6639	0.064	0.00034957687
8	6640	0.064	0.000237909461
8	6641	0.064	0.000126242052
8	6642	0.064	1.4574643e-005
8	6719	0.065	0.000936284992
8	6720	0.065	0.000824089344
8	6721	0.065	0.000910160285
8	6722	0.065	0.00079632398
8	6723	0.065	0.000682487675
8	6724	0.065	0.000902907234
8	6725	0.065	0.000711893696
8	6726	0.065	0.000599698048
8	6727	0.065	0.00056865137
8	6728	0.065	0.000454815065
8	6729	0.065	0.00034097876
8	6730	0.065	0.000791239825
8	6731	0.065	0.0004875024
8	6732	0.065	0.000375306752
8	6733	0.065	0.000227142455
8	6734	0.065	0.00011330615
8	6735	0.065	0.000679572416
8	6736	0.065	0.000263111104
8	6737	0.065	0.000150915456
8	6738	0.065	0.000567905007
8	6739	0.065	3.8719808e-005
8	6740	0.065	0.000456237598
8	6741	0.065	0.000344570189
8	6742	0.065	0.00023290278
8	6743	0.065	0.000121235371
[...]
8	7152	0.069	0.000547878283
8	7153	0.069	0.000436210874
8	7154	0.069	0.000324543465
8	7155	0.069	0.000212876056
8	7156	0.069	0.000101208647
8	7233	0.07	0.00099967648
8	7234	0.07	0.000887480832
8	7235	0.07	0.000901362865
8	7236	0.07	0.00078752656
8	7237	0.07	0.000673690255
8	7238	0.07	0.000989541238
8	7239	0.07	0.000775285184
8	7240	0.07	0.000663089536
8	7241	0.07	0.00055985395
8	7242	0.07	0.000446017645
8	7243	0.07	0.00033218134
8	7244	0.07	0.000877873829
8	7245	0.07	0.000550893888
8	7246	0.07	0.00043869824
8	7247	0.07	0.000218345035
8	7248	0.07	0.00010450873
8	7249	0.07	0.00076620642
8	7250	0.07	0.000326502592
8	7251	0.07	0.000214306944
8	7252	0.07	0.000654539011
8	7253	0.07	0.000102111296
8	7254	0.07	0.000542871602
8	7255	0.07	0.000431204193
8	7256	0.07	0.000319536784
8	7257	0.07	0.000207869375
8	7258	0.07	9.6201966e-005
8	7337	0.071	0.000989915648
8	7338	0.071	0.00087772
8	7339	0.071	0.000990672425
8	7340	0.071	0.00087683612
8	7341	0.071	0.000762999815
8	7342	0.071	0.000984534557
8	7343	0.071	0.000765524352
8	7344	0.071	0.000653328704
8	7345	0.071	0.00064916351
8	7346	0.071	0.000535327205
8	7347	0.071	0.0004214909
8	7348	0.071	0.000872867148
8	7349	0.071	0.000541133056
8	7350	0.071	0.000428937408
8	7351	0.071	0.000307654595
8	7352	0.071	0.00019381829
8	7353	0.071	7.9981985e-005
8	7354	0.071	0.000761199739
8	7355	0.071	0.00031674176
8	7356	0.071	0.000204546112
8	7357	0.071	0.00064953233
8	7358	0.071	9.2350464e-005
8	7359	0.071	0.000537864921
8	7360	0.071	0.000426197512
8	7361	0.071	0.000314530103
8	7362	0.071	0.000202862694
8	7363	0.071	9.1195285e-005
8	7442	0.072	0.000980154816
8	7443	0.072	0.000867959168
8	7444	0.072	0.00096614568
8	7445	0.072	0.000852309375
8	7446	0.072	0.00073847307
8	7447	0.072	0.000979527876
8	7448	0.072	0.00075576352
8	7449	0.072	0.000643567872
8	7450	0.072	0.000624636765
8	7451	0.072	0.00051080046
8	7452	0.072	0.000396964155
8	7453	0.072	0.000867860467
8	7454	0.072	0.000531372224
8	7455	0.072	0.000419176576
8	7456	0.072	0.00028312785
8	7457	0.072	0.000169291545
8	7458	0.072	5.545524e-005
8	7459	0.072	0.000756193058
8	7460	0.072	0.000306980928
8	7461	0.072	0.00019478528
8	7462	0.072	0.000644525649
8	7463	0.072	8.2589632e-005
8	7464	0.072	0.00053285824
8	7465	0.072	0.000421190831
8	7466	0.072	0.000309523422
8	7467	0.072	0.000197856013
8	7468	0.072	8.6188604e-005
8	7547	0.073	0.000970393984
8	7548	0.073	0.000858198336
8	7549	0.073	0.000941618935
8	7550	0.073	0.00082778263
8	7551	0.073	0.000713946325
8	7552	0.073	0.000974521195
8	7553	0.073	0.000746002688
8	7554	0.073	0.00063380704
8	7555	0.073	0.00060011002
8	7556	0.073	0.000486273715
8	7557	0.073	0.00037243741
8	7558	0.073	0.000862853786
8	7559	0.073	0.000521611392
8	7560	0.073	0.000409415744
8	7561	0.073	0.000258601105
8	7562	0.073	0.0001447648
8	7563	0.073	3.0928495e-005
8	7564	0.073	0.000751186377
8	7565	0.073	0.000297220096
8	7566	0.073	0.000185024448
8	7567	0.073	0.000639518968
8	7568	0.073	7.28288e-005
8	7569	0.073	0.000527851559
8	7570	0.073	0.00041618415
8	7571	0.073	0.000304516741
8	7572	0.073	0.000192849332
8	7573	0.073	8.1181923e-005
8	7652	0.074	0.000960633152
8	7653	0.074	0.000848437504
8	7654	0.074	0.00091709219
8	7655	0.074	0.000803255885
8	7656	0.074	0.00068941958
8	7657	0.074	0.000969514514
8	7658	0.074	0.000736241856
8	7659	0.074	0.000624046208
8	7660	0.074	0.000575583275
8	7661	0.074	0.00046174697
8	7662	0.074	0.000347910665
8	7663	0.074	0.000857847105
8	7664	0.074	0.00051185056
8	7665	0.074	0.000399654912
8	7666	0.074	0.00023407436
8	7667	0.074	0.000120238055
8	7668	0.074	6.40175e-006
8	7669	0.074	0.000746179696
8	7670	0.074	0.000287459264
8	7671	0.074	0.000175263616
8	7672	0.074	0.000634512287
8	7673	0.074	6.3067968e-005
8	7674	0.074	0.000522844878
8	7675	0.074	0.000411177469
8	7676	0.074	0.00029951006
8	7677	0.074	0.000187842651
8	7678	0.074	7.6175242e-005
8	7755	0.075	0.00095087232
8	7756	0.075	0.000838676672
8	7757	0.075	0.000892565445
8	7758	0.075	0.00077872914
8	7759	0.075	0.000664892835
8	7760	0.075	0.000964507833
8	7761	0.075	0.000726481024
8	7762	0.075	0.000614285376
8	7763	0.075	0.00055105653
8	7764	0.075	0.000437220225
8	7765	0.075	0.00032338392
8	7766	0.075	0.000852840424
8	7767	0.075	0.000502089728
8	7768	0.075	0.00038989408
8	7769	0.075	0.000209547615
8	7770	0.075	9.571131e-005
8	7771	0.075	0.000741173015
8	7772	0.075	0.000277698432
8	7773	0.075	0.000165502784
8	7774	0.075	0.000629505606
8	7775	0.075	5.3307136e-005
8	7776	0.075	0.000517838197
8	7777	0.075	0.000406170788
8	7778	0.075	0.000294503379
8	7779	0.075	0.00018283597
8	7780	0.075	7.1168561e-005
8	7859	0.076	0.000941111488
8	7860	0.076	0.00082891584
8	7861	0.076	0.000981875005
8	7862	0.076	0.0008680387
8	7863	0.076	0.000754202395
8	7864	0.076	0.000959501152
8	7865	0.076	0.000716720192
8	7866	0.076	0.000604524544
8	7867	0.076	0.00064036609
8	7868	0.076	0.000526529785
8	7869	0.076	0.00041269348
8	7870	0.076	0.000847833743
8	7871	0.076	0.000492328896
8	7872	0.076	0.000380133248
8	7873	0.076	0.000298857175
8	7874	0.076	0.00018502087
8	7875	0.076	7.1184565e-005
8	7876	0.076	0.000736166334
8	7877	0.076	0.0002679376
8	7878	0.076	0.000155741952
8	7879	0.076	0.000624498925
8	7880	0.076	4.3546304e-005
8	7881	0.076	0.000512831516
8	7882	0.076	0.000401164107
8	7883	0.076	0.000289496698
8	7884	0.076	0.000177829289
8	7885	0.076	6.616188e-005
8	7964	0.077	0.000931350656
8	7965	0.077	0.000819155008
8	7966	0.077	0.00095734826
8	7967	0.077	0.000843511955
8	7968	0.077	0.00072967565
8	7969	0.077	0.000954494471
8	7970	0.077	0.00070695936
8	7971	0.077	0.000594763712
8	7972	0.077	0.000615839345
8	7973	0.077	0.00050200304
8	7974	0.077	0.000388166735
8	7975	0.077	0.000842827062
8	7976	0.077	0.000482568064
8	7977	0.077	0.000370372416
8	7978	0.077	0.00027433043
8	7979	0.077	0.000160494125
8	7980	0.077	4.665782e-005
8	7981	0.077	0.000731159653
8	7982	0.077	0.000258176768
8	7983	0.077	0.00014598112
8	7984	0.077	0.000619492244
8	7985	0.077	3.3785472e-005
8	7986	0.077	0.000507824835
8	7987	0.077	0.000396157426
8	7988	0.077	0.000284490017
8	7989	0.077	0.000172822608
8	7990	0.077	6.1155199e-005
8	8069	0.078	0.000921589824
8	8070	0.078	0.000809394176
8	8071	0.078	0.000932821515
8	8072	0.078	0.00081898521
8	8073	0.078	0.000705148905
8	8074	0.078	0.00094948779
8	8075	0.078	0.000697198528
8	8076	0.078	0.00058500288
8	8077	0.078	0.0005913126
8	8078	0.078	0.000477476295
8	8079	0.078	0.00036363999
8	8080	0.078	0.000837820381
8	8081	0.078	0.000472807232
8	8082	0.078	0.000360611584
8	8083	0.078	0.000249803685
8	8084	0.078	0.00013596738
8	8085	0.078	2.2131075e-005
8	8086	0.078	0.000726152972
8	8087	0.078	0.000248415936
8	8088	0.078	0.000136220288
8	8089	0.078	0.000614485563
8	8090	0.078	2.402464e-005
8	8091	0.078	0.000502818154
8	8092	0.078	0.000391150745
8	8093	0.078	0.000279483336
8	8094	0.078	0.000167815927
8	8095	0.078	5.6148518e-005
8	8172	0.079	0.000911828992
8	8173	0.079	0.000799633344
8	8174	0.079	0.00090829477
8	8175	0.079	0.000794458465
8	8176	0.079	0.00068062216
8	8177	0.079	0.000944481109
8	8178	0.079	0.000687437696
8	8179	0.079	0.000575242048
8	8180	0.079	0.000566785855
8	8181	0.079	0.00045294955
8	8182	0.079	0.000339113245
8	8183	0.079	0.0008328137
8	8184	0.079	0.0004630464
8	8185	0.079	0.000350850752
8	8186	0.079	0.00022527694
8	8187	0.079	0.000111440635
8	8188	0.079	0.000721146291
8	8189	0.079	0.000238655104
8	8190	0.079	0.000126459456
8	8191	0.079	0.000609478882
8	8192	0.079	1.4263808e-005
8	8193	0.079	0.000497811473
8	8194	0.079	0.000386144064
8	8195	0.079	0.000274476655
8	8196	0.079	0.000162809246
8	8197	0.079	5.1141837e-005
8	8276	0.08	0.00090206816
8	8277	0.08	0.000789872512
8	8278	0.08	0.00099760433
8	8279	0.08	0.000883768025
8	8280	0.08	0.00076993172
8	8281	0.08	0.000939474428
8	8282	0.08	0.000677676864
8	8283	0.08	0.000565481216
8	8284	0.08	0.000656095415
8	8285	0.08	0.00054225911
8	8286	0.08	0.000428422805
8	8287	0.08	0.000827807019
8	8288	0.08	0.000453285568
8	8289	0.08	0.00034108992
8	8290	0.08	0.0003145865
8	8291	0.08	0.000200750195
8	8292	0.08	8.691389e-005
8	8293	0.08	0.00071613961
8	8294	0.08	0.000228894272
8	8295	0.08	0.000116698624
8	8296	0.08	0.000604472201
8	8297	0.08	4.502976e-006
8	8298	0.08	0.000492804792
8	8299	0.08	0.000381137383
8	8300	0.08	0.000269469974
8	8301	0.08	0.000157802565
8	8302	0.08	4.6135156e-005
8	8378	0.081	0.000892307328
8	8379	0.081	0.00078011168
8	8380	0.081	0.000973077585
8	8381	0.081	0.00085924128
8	8382	0.081	0.000745404975
8	8383	0.081	0.000934467747
8	8384	0.081	0.000667916032
8	8385	0.081	0.000555720384
8	8386	0.081	0.00063156867
8	8387	0.081	0.000517732365
8	8388	0.081	0.00040389606
8	8389	0.081	0.000822800338
8	8390	0.081	0.000443524736
8	8391	0.081	0.000331329088
8	8392	0.081	0.000290059755
8	8393	0.081	0.00017622345
8	8394	0.081	6.2387145e-005
8	8395	0.081	0.000711132929
8	8396	0.081	0.00021913344
8	8397	0.081	0.000106937792
8	8398	0.081	0.00059946552
8	8399	0.081	0.000487798111
8	8400	0.081	0.000376130702
8	8401	0.081	0.000264463293
8	8402	0.081	0.000152795884
8	8403	0.081	4.1128475e-005
8	8482	0.082	0.000994742144
8	8483	0.082	0.000882546496
8	8484	0.082	0.00094855084
8	8485	0.082	0.000834714535
8	8486	0.082	0.00072087823
8	8487	0.082	0.000929461066
8	8488	0.082	0.000770350848
8	8489	0.082	0.0006581552
8	8490	0.082	0.000607041925
8	8491	0.082	0.00049320562
8	8492	0.082	0.000379369315
8	8493	0.082	0.000817793657
8	8494	0.082	0.000545959552
8	8495	0.082	0.000433763904
8	8496	0.082	0.00026553301
8	8497	0.082	0.000151696705
8	8498	0.082	3.78604e-005
8	8499	0.082	0.000706126248
8	8500	0.082	0.000321568256
8	8501	0.082	0.000209372608
8	8502	0.082	0.000594458839
8	8503	0.082	9.717696e-005
8	8504	0.082	0.00048279143
8	8505	0.082	0.000371124021
8	8506	0.082	0.000259456612
8	8507	0.082	0.000147789203
8	8508	0.082	3.6121794e-005
8	8587	0.083	0.000984981312
8	8588	0.083	0.000872785664
8	8589	0.083	0.000924024095
8	8590	0.083	0.00081018779
8	8591	0.083	0.000696351485
8	8592	0.083	0.000924454385
8	8593	0.083	0.000760590016
8	8594	0.083	0.000648394368
8	8595	0.083	0.00058251518
8	8596	0.083	0.000468678875
8	8597	0.083	0.00035484257
8	8598	0.083	0.000812786976
8	8599	0.083	0.00053619872
8	8600	0.083	0.000424003072
8	8601	0.083	0.000241006265
8	8602	0.083	0.00012716996
8	8603	0.083	1.3333655e-005
8	8604	0.083	0.000701119567
8	8605	0.083	0.000311807424
8	8606	0.083	0.000199611776
8	8607	0.083	0.000589452158
8	8608	0.083	8.7416128e-005
8	8609	0.083	0.000477784749
8	8610	0.083	0.00036611734
8	8611	0.083	0.000254449931
8	8612	0.083	0.000142782522
8	8613	0.083	3.1115113e-005
8	8690	0.084	0.00097522048
8	8691	0.084	0.000863024832
8	8692	0.084	0.00089949735
8	8693	0.084	0.000785661045
8	8694	0.084	0.00067182474
8	8695	0.084	0.000919447704
8	8696	0.084	0.000750829184
8	8697	0.084	0.000638633536
8	8698	0.084	0.000557988435
8	8699	0.084	0.00044415213
8	8700	0.084	0.000330315825
8	8701	0.084	0.000807780295
8	8702	0.084	0.000526437888
8	8703	0.084	0.00041424224
8	8704	0.084	0.00021647952
8	8705	0.084	0.000102643215
8	8706	0.084	0.000696112886
8	8707	0.084	0.000302046592
8	8708	0.084	0.000189850944
8	8709	0.084	0.000584445477
8	8710	0.084	7.7655296e-005
8	8711	0.084	0.000472778068
8	8712	0.084	0.000361110659
8	8713	0.084	0.00024944325
8	8714	0.084	0.000137775841
8	8715	0.084	2.6108432e-005
8	8794	0.085	0.000965459648
8	8795	0.085	0.000853264
8	8796	0.085	0.00098880691
8	8797	0.085	0.000874970605
8	8798	0.085	0.0007611343
8	8799	0.085	0.000914441023
8	8800	0.085	0.000741068352
8	8801	0.085	0.000628872704
8	8802	0.085	0.000647297995
8	8803	0.085	0.00053346169
8	8804	0.085	0.000419625385
8	8805	0.085	0.000802773614
8	8806	0.085	0.000516677056
8	8807	0.085	0.000404481408
8	8808	0.085	0.00030578908
8	8809	0.085	0.000191952775
8	8810	0.085	7.811647e-005
8	8811	0.085	0.000691106205
8	8812	0.085	0.00029228576
8	8813	0.085	0.000180090112
8	8814	0.085	0.000579438796
8	8815	0.085	6.7894464e-005
8	8816	0.085	0.000467771387
8	8817	0.085	0.000356103978
8	8818	0.085	0.000244436569
8	8819	0.085	0.00013276916
8	8820	0.085	2.1101751e-005
8	8899	0.086	0.000955698816
8	8900	0.086	0.000843503168
8	8901	0.086	0.000964280165
8	8902	0.086	0.00085044386
8	8903	0.086	0.000736607555
8	8904	0.086	0.000909434342
8	8905	0.086	0.00073130752
8	8906	0.086	0.000619111872
8	8907	0.086	0.00062277125
8	8908	0.086	0.000508934945
8	8909	0.086	0.00039509864
8	8910	0.086	0.000797766933
8	8911	0.086	0.000506916224
8	8912	0.086	0.000394720576
8	8913	0.086	0.000281262335
8	8914	0.086	0.00016742603
8	8915	0.086	5.3589725e-005
8	8916	0.086	0.000686099524
8	8917	0.086	0.000282524928
8	8918	0.086	0.00017032928
8	8919	0.086	0.000574432115
8	8920	0.086	5.8133632e-005
8	8921	0.086	0.000462764706
8	8922	0.086	0.000351097297
8	8923	0.086	0.000239429888
8	8924	0.086	0.000127762479
8	8925	0.086	1.609507e-005
8	9004	0.087	0.000945937984
8	9005	0.087	0.000833742336
8	9006	0.087	0.00093975342
8	9007	0.087	0.000825917115
8	9008	0.087	0.00071208081
8	9009	0.087	0.000904427661
8	9010	0.087	0.000721546688
8	9011	0.087	0.00060935104
8	9012	0.087	0.000598244505
8	9013	0.087	0.0004844082
8	9014	0.087	0.000370571895
8	9015	0.087	0.000792760252
8	9016	0.087	0.000497155392
8	9017	0.087	0.000384959744
8	9018	0.087	0.00025673559
8	9019	0.087	0.000142899285
8	9020	0.087	2.906298e-005
8	9021	0.087	0.000681092843
8	9022	0.087	0.000272764096
8	9023	0.087	0.000160568448
8	9024	0.087	0.000569425434
8	9025	0.087	4.83728e-005
8	9026	0.087	0.000457758025
8	9027	0.087	0.000346090616
8	9028	0.087	0.000234423207
8	9029	0.087	0.000122755798
8	9030	0.087	1.1088389e-005
8	9109	0.088	0.000936177152
8	9110	0.088	0.000823981504
8	9111	0.088	0.000915226675
8	9112	0.088	0.00080139037
8	9113	0.088	0.000687554065
8	9114	0.088	0.00089942098
8	9115	0.088	0.000711785856
8	9116	0.088	0.000599590208
8	9117	0.088	0.00057371776
8	9118	0.088	0.000459881455
8	9119	0.088	0.00034604515
8	9120	0.088	0.000787753571
8	9121	0.088	0.00048739456
8	9122	0.088	0.000375198912
8	9123	0.088	0.000232208845
8	9124	0.088	0.00011837254
8	9125	0.088	4.536235e-006
8	9126	0.088	0.000676086162
8	9127	0.088	0.000263003264
8	9128	0.088	0.000150807616
8	9129	0.088	0.000564418753
8	9130	0.088	3.8611968e-005
8	9131	0.088	0.000452751344
8	9132	0.088	0.000341083935
8	9133	0.088	0.000229416526
8	9134	0.088	0.000117749117
8	9135	0.088	6.081708e-006
8	9212	0.089	0.00092641632
8	9213	0.089	0.000814220672
8	9214	0.089	0.00089069993
8	9215	0.089	0.000776863625
8	9216	0.089	0.00066302732
8	9217	0.089	0.000894414299
8	9218	0.089	0.000702025024
8	9219	0.089	0.000589829376
8	9220	0.089	0.000549191015
8	9221	0.089	0.00043535471
8	9222	0.089	0.000321518405
8	9223	0.089	0.00078274689
8	9224	0.089	0.000477633728
8	9225	0.089	0.00036543808
8	9226	0.089	0.0002076821
8	9227	0.089	9.3845795e-005
8	9228	0.089	0.000671079481
8	9229	0.089	0.000253242432
8	9230	0.089	0.000141046784
8	9231	0.089	0.000559412072
8	9232	0.089	2.8851136e-005
8	9233	0.089	0.000447744663
8	9234	0.089	0.000336077254
8	9235	0.089	0.000224409845
8	9236	0.089	0.000112742436
8	9237	0.089	1.075027e-006
8	9313	0.09	0.000916655488
8	9314	0.09	0.00080445984
8	9315	0.09	0.00098000949
8	9316	0.09	0.000866173185
8	9317	0.09	0.00075233688
8	9318	0.09	0.000889407618
8	9319	0.09	0.000692264192
8	9320	0.09	0.000580068544
8	9321	0.09	0.000638500575
8	9322	0.09	0.00052466427
8	9323	0.09	0.000410827965
8	9324	0.09	0.000777740209
8	9325	0.09	0.000467872896
8	9326	0.09	0.000355677248
8	9327	0.09	0.00029699166
8	9328	0.09	0.000183155355
8	9329	0.09	6.931905e-005
8	9330	0.09	0.0006660728
8	9331	0.09	0.0002434816
8	9332	0.09	0.000131285952
8	9333	0.09	0.000554405391
8	9334	0.09	1.9090304e-005
8	9335	0.09	0.000442737982
8	9336	0.09	0.000331070573
8	9337	0.09	0.000219403164
8	9338	0.09	0.000107735755
8	9417	0.091	0.000906894656
8	9418	0.091	0.000794699008
8	9419	0.091	0.000955482745
8	9420	0.091	0.00084164644
8	9421	0.091	0.000727810135
8	9422	0.091	0.000996068346
8	9423	0.091	0.00068250336
8	9424	0.091	0.000570307712
8	9425	0.091	0.00061397383
8	9426	0.091	0.000500137525
8	9427	0.091	0.00038630122
8	9428	0.091	0.000884400937
8	9429	0.091	0.000458112064
8	9430	0.091	0.000345916416
8	9431	0.091	0.000272464915
8	9432	0.091	0.00015862861
8	9433	0.091	4.4792305e-005
8	9434	0.091	0.000772733528
8	9435	0.091	0.000233720768
8	9436	0.091	0.00012152512
8	9437	0.091	0.000661066119
8	9438	0.091	9.329472e-006
8	9439	0.091	0.00054939871
8	9440	0.091	0.000437731301
8	9441	0.091	0.000326063892
8	9442	0.091	0.000214396483
8	9443	0.091	0.000102729074
8	9519	0.092	0.000897133824
8	9520	0.092	0.000784938176
8	9521	0.092	0.000930956
8	9522	0.092	0.000817119695
8	9523	0.092	0.00070328339
8	9524	0.092	0.000991061665
8	9525	0.092	0.000672742528
8	9526	0.092	0.00056054688
8	9527	0.092	0.000589447085
8	9528	0.092	0.00047561078
8	9529	0.092	0.000361774475
8	9530	0.092	0.000879394256
8	9531	0.092	0.000448351232
8	9532	0.092	0.000336155584
8	9533	0.092	0.00024793817
8	9534	0.092	0.000134101865
8	9535	0.092	2.026556e-005
8	9536	0.092	0.000767726847
8	9537	0.092	0.000223959936
8	9538	0.092	0.000111764288
8	9539	0.092	0.000656059438
8	9540	0.092	0.000544392029
8	9541	0.092	0.00043272462
8	9542	0.092	0.000321057211
8	9543	0.092	0.000209389802
8	9544	0.092	9.7722393e-005
8	9621	0.093	0.00099956864
8	9622	0.093	0.000887372992
8	9623	0.093	0.000906429255
8	9624	0.093	0.00079259295
8	9625	0.093	0.000678756645
8	9626	0.093	0.000986054984
8	9627	0.093	0.000775177344
8	9628	0.093	0.000662981696
8	9629	0.093	0.00056492034
8	9630	0.093	0.000451084035
8	9631	0.093	0.00033724773
8	9632	0.093	0.000874387575
8	9633	0.093	0.000550786048
8	9634	0.093	0.0004385904
8	9635	0.093	0.000223411425
8	9636	0.093	0.00010957512
8	9637	0.093	0.000762720166
8	9638	0.093	0.000326394752
8	9639	0.093	0.000214199104
8	9640	0.093	0.000651052757
8	9641	0.093	0.000102003456
8	9642	0.093	0.000539385348
8	9643	0.093	0.000427717939
8	9644	0.093	0.00031605053
8	9645	0.093	0.000204383121
8	9646	0.093	9.2715712e-005
8	9725	0.094	0.000989807808
8	9726	0.094	0.00087761216
8	9727	0.094	0.000995738815
8	9728	0.094	0.00088190251
8	9729	0.094	0.000768066205
8	9730	0.094	0.000981048303
8	9731	0.094	0.000765416512
8	9732	0.094	0.000653220864
8	9733	0.094	0.0006542299
8	9734	0.094	0.000540393595
8	9735	0.094	0.00042655729
8	9736	0.094	0.000869380894
8	9737	0.094	0.000541025216
8	9738	0.094	0.000428829568
8	9739	0.094	0.000312720985
8	9740	0.094	0.00019888468
8	9741	0.094	8.5048375e-005
8	9742	0.094	0.000757713485
8	9743	0.094	0.00031663392
8	9744	0.094	0.000204438272
8	9745	0.094	0.000646046076
8	9746	0.094	9.2242624e-005
8	9747	0.094	0.000534378667
8	9748	0.094	0.000422711258
8	9749	0.094	0.000311043849
8	9750	0.094	0.00019937644
8	9751	0.094	8.7709031e-005
8	9830	0.095	0.000980046976
8	9831	0.095	0.000867851328
8	9832	0.095	0.00097121207
8	9833	0.095	0.000857375765
8	9834	0.095	0.00074353946
8	9835	0.095	0.000976041622
8	9836	0.095	0.00075565568
8	9837	0.095	0.000643460032
8	9838	0.095	0.000629703155
8	9839	0.095	0.00051586685
8	9840	0.095	0.000402030545
8	9841	0.095	0.000864374213
8	9842	0.095	0.000531264384
8	9843	0.095	0.000419068736
8	9844	0.095	0.00028819424
8	9845	0.095	0.000174357935
8	9846	0.095	6.052163e-005
8	9847	0.095	0.000752706804
8	9848	0.095	0.000306873088
8	9849	0.095	0.00019467744
8	9850	0.095	0.000641039395
8	9851	0.095	8.2481792e-005
8	9852	0.095	0.000529371986
8	9853	0.095	0.000417704577
8	9854	0.095	0.000306037168
8	9855	0.095	0.000194369759
8	9856	0.095	8.270235e-005
8	9935	0.096	0.000970286144
8	9936	0.096	0.000858090496
8	9937	0.096	0.000946685325
8	9938	0.096	0.00083284902
8	9939	0.096	0.000719012715
8	9940	0.096	0.000971034941
8	9941	0.096	0.000745894848
8	9942	0.096	0.0006336992
8	9943	0.096	0.00060517641
8	9944	0.096	0.000491340105
8	9945	0.096	0.0003775038
8	9946	0.096	0.000859367532
8	9947	0.096	0.000521503552
8	9948	0.096	0.000409307904
8	9949	0.096	0.000263667495
8	9950	0.096	0.00014983119
8	9951	0.096	3.5994885e-005
8	9952	0.096	0.000747700123
8	9953	0.096	0.000297112256
8	9954	0.096	0.000184916608
8	9955	0.096	0.000636032714
8	9956	0.096	7.272096e-005
8	9957	0.096	0.000524365305
8	9958	0.096	0.000412697896
8	9959	0.096	0.000301030487
8	9960	0.096	0.000189363078
8	9961	0.096	7.7695669e-005

