version 2
run _3UsersSetupPF-0-20201129-17:11:08-1552
attr configname _3UsersSetupPF
attr datetime 20201129-17:11:08
attr experiment _3UsersSetupPF
attr inifile omnetpp.ini
attr iterationvars ""
attr iterationvarsf ""
attr measurement ""
attr network Network
attr processid 1552
attr repetition 0
attr replication #0
attr resultdir results
attr runnumber 0
attr seedset 0
param **.algorithm "\"pf\""
param **.usersCount 3
param **.channelsCount 30
param **.networkLoad 1.5
param **.scheduler.generateInterval 1ms
param **.gen.generateInterval "triang(0.9ms, 1.0ms, 1.1ms)"
param **.user[0].radioLinkQuality 1
param **.user[1].radioLinkQuality 2
param **.user[2].radioLinkQuality 3
param **.user[0].gen.startingMessage 0
param **.user[1].gen.startingMessage 100
param **.user[2].gen.startingMessage 200

vector 0 Network.user[0].queue "Queue before scheduler's run." ETV
vector 1 Network.user[1].queue "Queue before scheduler's run." ETV
vector 2 Network.user[2].queue "Queue before scheduler's run." ETV
vector 3 Network.scheduler "Scheduler free channels" ETV
vector 4 Network.scheduler "Total users' queues lengths" ETV
vector 5 Network.user[2].queue "Queue after scheduler's run." ETV
vector 6 Network.user[1].queue "Queue after scheduler's run." ETV
vector 7 Network.user[0].queue "Queue after scheduler's run." ETV
vector 8 Network.sink lifetime:vector ETV
attr interpolationmode none
attr title "lifetime of arrived jobs, vector"
attr unit s
0	86	0.001	14
0	228	0.002	16
0	368	0.003	18
0	510	0.004	20
0	652	0.005	22
0	792	0.006	24
0	932	0.007	26
0	1074	0.008	28
0	1214	0.009	30
0	1356	0.01	32
0	1498	0.011	34
0	1638	0.012	36
0	1780	0.013	38
0	1916	0.014	39
0	2058	0.015	41
0	2200	0.016	43
0	2340	0.017	45
0	2482	0.018	47
0	2624	0.019	49
0	2764	0.02	51
0	2904	0.021	53
0	3046	0.022	55
0	3186	0.023	57
0	3328	0.024	59
0	3470	0.025	61
0	3610	0.026	63
0	3750	0.027	64
0	3888	0.028	66
0	4030	0.029	68
0	4172	0.03	70
0	4312	0.031	72
0	4454	0.032	74
0	4596	0.033	76
0	4736	0.034	78
0	4876	0.035	80
0	5018	0.036	82
0	5158	0.037	84
0	5300	0.038	86
0	5440	0.039	88
0	5582	0.04	90
0	5722	0.041	91
0	5860	0.042	93
0	6002	0.043	95
0	6144	0.044	97
0	6284	0.045	99
0	6426	0.046	101
0	6568	0.047	103
0	6708	0.048	105
0	6848	0.049	107
0	6990	0.05	109
0	7130	0.051	111
0	7272	0.052	113
0	7412	0.053	115
0	7552	0.054	116
0	7694	0.055	118
0	7832	0.056	120
0	7974	0.057	122
0	8116	0.058	124
0	8256	0.059	126
0	8398	0.06	128
0	8540	0.061	130
0	8680	0.062	132
0	8820	0.063	134
0	8962	0.064	136
0	9102	0.065	138
0	9244	0.066	140
0	9382	0.067	141
0	9524	0.068	143
0	9664	0.069	145
0	9804	0.07	147
0	9946	0.071	149
1	87	0.001	14
1	229	0.002	19
1	369	0.003	24
1	511	0.004	29
1	653	0.005	34
1	793	0.006	39
1	933	0.007	43
1	1075	0.008	48
1	1215	0.009	53
1	1357	0.01	58
1	1499	0.011	63
1	1639	0.012	68
1	1781	0.013	73
1	1917	0.014	77
1	2059	0.015	82
1	2201	0.016	87
1	2341	0.017	92
1	2483	0.018	97
1	2625	0.019	102
1	2765	0.02	107
1	2905	0.021	111
1	3047	0.022	116
1	3187	0.023	121
1	3329	0.024	126
1	3471	0.025	131
1	3611	0.026	136
1	3751	0.027	141
1	3889	0.028	145
1	4031	0.029	150
1	4173	0.03	155
1	4313	0.031	160
1	4455	0.032	165
1	4597	0.033	170
1	4737	0.034	175
1	4877	0.035	179
1	5019	0.036	184
1	5159	0.037	189
1	5301	0.038	194
1	5441	0.039	199
1	5583	0.04	204
1	5723	0.041	209
1	5861	0.042	213
1	6003	0.043	218
1	6145	0.044	223
1	6285	0.045	228
1	6427	0.046	233
1	6569	0.047	238
1	6709	0.048	243
1	6849	0.049	247
1	6991	0.05	252
1	7131	0.051	257
1	7273	0.052	262
1	7413	0.053	267
1	7553	0.054	272
1	7695	0.055	277
1	7833	0.056	281
1	7975	0.057	286
1	8117	0.058	291
1	8257	0.059	296
1	8399	0.06	301
1	8541	0.061	306
1	8681	0.062	311
1	8821	0.063	315
1	8963	0.064	320
1	9103	0.065	325
1	9245	0.066	330
1	9383	0.067	335
1	9525	0.068	340
1	9665	0.069	344
1	9805	0.07	349
1	9947	0.071	354
2	88	0.001	14
2	230	0.002	22
2	370	0.003	29
2	512	0.004	37
2	654	0.005	45
2	794	0.006	52
2	934	0.007	60
2	1076	0.008	68
2	1216	0.009	75
2	1358	0.01	83
2	1500	0.011	91
2	1640	0.012	98
2	1782	0.013	106
2	1918	0.014	113
2	2060	0.015	121
2	2202	0.016	129
2	2342	0.017	136
2	2484	0.018	144
2	2626	0.019	152
2	2766	0.02	159
2	2906	0.021	167
2	3048	0.022	175
2	3188	0.023	182
2	3330	0.024	190
2	3472	0.025	198
2	3612	0.026	205
2	3752	0.027	213
2	3890	0.028	220
2	4032	0.029	228
2	4174	0.03	236
2	4314	0.031	243
2	4456	0.032	251
2	4598	0.033	259
2	4738	0.034	266
2	4878	0.035	274
2	5020	0.036	282
2	5160	0.037	289
2	5302	0.038	297
2	5442	0.039	304
2	5584	0.04	312
2	5724	0.041	320
2	5862	0.042	327
2	6004	0.043	335
2	6146	0.044	343
2	6286	0.045	350
2	6428	0.046	358
2	6570	0.047	366
2	6710	0.048	373
2	6850	0.049	381
2	6992	0.05	389
2	7132	0.051	396
2	7274	0.052	404
2	7414	0.053	411
2	7554	0.054	419
2	7696	0.055	427
2	7834	0.056	434
2	7976	0.057	442
2	8118	0.058	450
2	8258	0.059	457
2	8400	0.06	465
2	8542	0.061	473
2	8682	0.062	480
2	8822	0.063	488
2	8964	0.064	496
2	9104	0.065	503
2	9246	0.066	511
2	9384	0.067	518
2	9526	0.068	526
2	9666	0.069	534
2	9806	0.07	541
2	9948	0.071	549
3	91	0.001	0
3	233	0.002	0
3	373	0.003	0
3	515	0.004	0
3	657	0.005	0
3	797	0.006	0
3	937	0.007	0
3	1079	0.008	0
3	1219	0.009	0
3	1361	0.01	0
3	1503	0.011	0
3	1643	0.012	0
3	1785	0.013	0
3	1921	0.014	0
3	2063	0.015	0
3	2205	0.016	0
3	2345	0.017	0
3	2487	0.018	0
3	2629	0.019	0
3	2769	0.02	0
3	2909	0.021	0
3	3051	0.022	0
3	3191	0.023	0
3	3333	0.024	0
3	3475	0.025	0
3	3615	0.026	0
3	3755	0.027	0
3	3893	0.028	0
3	4035	0.029	0
3	4177	0.03	0
3	4317	0.031	0
3	4459	0.032	0
3	4601	0.033	0
3	4741	0.034	0
3	4881	0.035	0
3	5023	0.036	0
3	5163	0.037	0
3	5305	0.038	0
3	5445	0.039	0
3	5587	0.04	0
3	5727	0.041	0
3	5865	0.042	0
3	6007	0.043	0
3	6149	0.044	0
3	6289	0.045	0
3	6431	0.046	0
3	6573	0.047	0
3	6713	0.048	0
3	6853	0.049	0
3	6995	0.05	0
3	7135	0.051	0
3	7277	0.052	0
3	7417	0.053	0
3	7557	0.054	0
3	7699	0.055	0
3	7837	0.056	0
3	7979	0.057	0
3	8121	0.058	0
3	8261	0.059	0
3	8403	0.06	0
3	8545	0.061	0
3	8685	0.062	0
3	8825	0.063	0
3	8967	0.064	0
3	9107	0.065	0
3	9249	0.066	0
3	9387	0.067	0
3	9529	0.068	0
3	9669	0.069	0
3	9809	0.07	0
3	9951	0.071	0
4	91	0.001	12
4	233	0.002	27
4	373	0.003	41
4	515	0.004	56
4	657	0.005	71
4	797	0.006	85
4	937	0.007	99
4	1079	0.008	114
4	1219	0.009	128
4	1361	0.01	143
4	1503	0.011	158
4	1643	0.012	172
4	1785	0.013	187
4	1921	0.014	199
4	2063	0.015	214
4	2205	0.016	229
4	2345	0.017	243
4	2487	0.018	258
4	2629	0.019	273
4	2769	0.02	287
4	2909	0.021	301
4	3051	0.022	316
4	3191	0.023	330
4	3333	0.024	345
4	3475	0.025	360
4	3615	0.026	374
4	3755	0.027	388
4	3893	0.028	401
4	4035	0.029	416
4	4177	0.03	431
4	4317	0.031	445
4	4459	0.032	460
4	4601	0.033	475
4	4741	0.034	489
4	4881	0.035	503
4	5023	0.036	518
4	5163	0.037	532
4	5305	0.038	547
4	5445	0.039	561
4	5587	0.04	576
4	5727	0.041	590
4	5865	0.042	603
4	6007	0.043	618
4	6149	0.044	633
4	6289	0.045	647
4	6431	0.046	662
4	6573	0.047	677
4	6713	0.048	691
4	6853	0.049	705
4	6995	0.05	720
4	7135	0.051	734
4	7277	0.052	749
4	7417	0.053	763
4	7557	0.054	777
4	7699	0.055	792
4	7837	0.056	805
4	7979	0.057	820
4	8121	0.058	835
4	8261	0.059	849
4	8403	0.06	864
4	8545	0.061	879
4	8685	0.062	893
4	8825	0.063	907
4	8967	0.064	922
4	9107	0.065	936
4	9249	0.066	951
4	9387	0.067	964
4	9529	0.068	979
4	9669	0.069	993
4	9809	0.07	1007
4	9951	0.071	1022
5	92	0.001	11
5	95	0.001	10
5	98	0.001	9
5	101	0.001	8
5	104	0.001	7
5	234	0.002	19
5	237	0.002	18
5	240	0.002	17
5	243	0.002	16
5	246	0.002	15
5	374	0.003	26
5	377	0.003	25
5	380	0.003	24
5	383	0.003	23
5	386	0.003	22
5	516	0.004	34
5	519	0.004	33
5	522	0.004	32
5	525	0.004	31
5	528	0.004	30
5	658	0.005	42
5	661	0.005	41
5	664	0.005	40
5	667	0.005	39
5	670	0.005	38
5	798	0.006	49
5	801	0.006	48
5	804	0.006	47
5	807	0.006	46
5	810	0.006	45
5	938	0.007	57
5	941	0.007	56
5	944	0.007	55
5	947	0.007	54
5	950	0.007	53
5	1080	0.008	65
5	1083	0.008	64
5	1086	0.008	63
5	1089	0.008	62
5	1092	0.008	61
5	1220	0.009	72
5	1223	0.009	71
5	1226	0.009	70
5	1229	0.009	69
5	1232	0.009	68
5	1362	0.01	80
5	1365	0.01	79
5	1368	0.01	78
5	1371	0.01	77
5	1374	0.01	76
5	1504	0.011	88
5	1507	0.011	87
5	1510	0.011	86
5	1513	0.011	85
5	1516	0.011	84
5	1644	0.012	95
5	1647	0.012	94
5	1650	0.012	93
5	1653	0.012	92
5	1656	0.012	91
5	1786	0.013	103
5	1789	0.013	102
5	1792	0.013	101
5	1795	0.013	100
5	1798	0.013	99
5	1922	0.014	110
5	1925	0.014	109
5	1928	0.014	108
5	1931	0.014	107
5	1934	0.014	106
5	2064	0.015	118
5	2067	0.015	117
5	2070	0.015	116
5	2073	0.015	115
5	2076	0.015	114
5	2206	0.016	126
5	2209	0.016	125
5	2212	0.016	124
5	2215	0.016	123
5	2218	0.016	122
5	2346	0.017	133
5	2349	0.017	132
5	2352	0.017	131
5	2355	0.017	130
5	2358	0.017	129
5	2488	0.018	141
5	2491	0.018	140
5	2494	0.018	139
5	2497	0.018	138
5	2500	0.018	137
5	2630	0.019	149
5	2633	0.019	148
5	2636	0.019	147
5	2639	0.019	146
5	2642	0.019	145
5	2770	0.02	156
5	2773	0.02	155
5	2776	0.02	154
5	2779	0.02	153
5	2782	0.02	152
5	2910	0.021	164
5	2913	0.021	163
5	2916	0.021	162
5	2919	0.021	161
5	2922	0.021	160
5	3052	0.022	172
5	3055	0.022	171
5	3058	0.022	170
5	3061	0.022	169
5	3064	0.022	168
5	3192	0.023	179
5	3195	0.023	178
5	3198	0.023	177
5	3201	0.023	176
5	3204	0.023	175
5	3334	0.024	187
5	3337	0.024	186
5	3340	0.024	185
5	3343	0.024	184
5	3346	0.024	183
5	3476	0.025	195
5	3479	0.025	194
5	3482	0.025	193
5	3485	0.025	192
5	3488	0.025	191
5	3616	0.026	202
5	3619	0.026	201
5	3622	0.026	200
5	3625	0.026	199
5	3628	0.026	198
5	3756	0.027	210
5	3759	0.027	209
5	3762	0.027	208
5	3765	0.027	207
5	3768	0.027	206
5	3894	0.028	217
5	3897	0.028	216
5	3900	0.028	215
5	3903	0.028	214
5	3906	0.028	213
5	4036	0.029	225
5	4039	0.029	224
5	4042	0.029	223
5	4045	0.029	222
5	4048	0.029	221
5	4178	0.03	233
5	4181	0.03	232
5	4184	0.03	231
5	4187	0.03	230
5	4190	0.03	229
5	4318	0.031	240
5	4321	0.031	239
5	4324	0.031	238
5	4327	0.031	237
5	4330	0.031	236
5	4460	0.032	248
5	4463	0.032	247
5	4466	0.032	246
5	4469	0.032	245
5	4472	0.032	244
5	4602	0.033	256
5	4605	0.033	255
5	4608	0.033	254
5	4611	0.033	253
5	4614	0.033	252
5	4742	0.034	263
5	4745	0.034	262
5	4748	0.034	261
5	4751	0.034	260
5	4754	0.034	259
5	4882	0.035	271
5	4885	0.035	270
5	4888	0.035	269
5	4891	0.035	268
5	4894	0.035	267
5	5024	0.036	279
5	5027	0.036	278
5	5030	0.036	277
5	5033	0.036	276
5	5036	0.036	275
5	5164	0.037	286
5	5167	0.037	285
5	5170	0.037	284
5	5173	0.037	283
5	5176	0.037	282
5	5306	0.038	294
5	5309	0.038	293
5	5312	0.038	292
5	5315	0.038	291
5	5318	0.038	290
5	5446	0.039	301
5	5449	0.039	300
5	5452	0.039	299
5	5455	0.039	298
5	5458	0.039	297
5	5588	0.04	309
5	5591	0.04	308
5	5594	0.04	307
5	5597	0.04	306
5	5600	0.04	305
5	5728	0.041	317
5	5731	0.041	316
5	5734	0.041	315
5	5737	0.041	314
5	5740	0.041	313
5	5866	0.042	324
5	5869	0.042	323
5	5872	0.042	322
5	5875	0.042	321
5	5878	0.042	320
5	6008	0.043	332
5	6011	0.043	331
5	6014	0.043	330
5	6017	0.043	329
5	6020	0.043	328
5	6150	0.044	340
5	6153	0.044	339
5	6156	0.044	338
5	6159	0.044	337
5	6162	0.044	336
5	6290	0.045	347
5	6293	0.045	346
5	6296	0.045	345
5	6299	0.045	344
5	6302	0.045	343
5	6432	0.046	355
5	6435	0.046	354
5	6438	0.046	353
5	6441	0.046	352
5	6444	0.046	351
5	6574	0.047	363
5	6577	0.047	362
5	6580	0.047	361
5	6583	0.047	360
5	6586	0.047	359
5	6714	0.048	370
5	6717	0.048	369
5	6720	0.048	368
5	6723	0.048	367
5	6726	0.048	366
5	6854	0.049	378
5	6857	0.049	377
5	6860	0.049	376
5	6863	0.049	375
5	6866	0.049	374
5	6996	0.05	386
5	6999	0.05	385
5	7002	0.05	384
5	7005	0.05	383
5	7008	0.05	382
5	7136	0.051	393
5	7139	0.051	392
5	7142	0.051	391
5	7145	0.051	390
5	7148	0.051	389
5	7278	0.052	401
5	7281	0.052	400
5	7284	0.052	399
5	7287	0.052	398
5	7290	0.052	397
5	7418	0.053	408
5	7421	0.053	407
5	7424	0.053	406
5	7427	0.053	405
5	7430	0.053	404
5	7558	0.054	416
5	7561	0.054	415
5	7564	0.054	414
5	7567	0.054	413
5	7570	0.054	412
5	7700	0.055	424
5	7703	0.055	423
5	7706	0.055	422
5	7709	0.055	421
5	7712	0.055	420
5	7838	0.056	431
5	7841	0.056	430
5	7844	0.056	429
5	7847	0.056	428
5	7850	0.056	427
5	7980	0.057	439
5	7983	0.057	438
5	7986	0.057	437
5	7989	0.057	436
5	7992	0.057	435
5	8122	0.058	447
5	8125	0.058	446
5	8128	0.058	445
5	8131	0.058	444
5	8134	0.058	443
5	8262	0.059	454
5	8265	0.059	453
5	8268	0.059	452
5	8271	0.059	451
5	8274	0.059	450
5	8404	0.06	462
5	8407	0.06	461
5	8410	0.06	460
5	8413	0.06	459
5	8416	0.06	458
5	8546	0.061	470
5	8549	0.061	469
5	8552	0.061	468
5	8555	0.061	467
5	8558	0.061	466
5	8686	0.062	477
5	8689	0.062	476
5	8692	0.062	475
5	8695	0.062	474
5	8698	0.062	473
5	8826	0.063	485
5	8829	0.063	484
5	8832	0.063	483
5	8835	0.063	482
5	8838	0.063	481
5	8968	0.064	493
5	8971	0.064	492
5	8974	0.064	491
5	8977	0.064	490
5	8980	0.064	489
5	9108	0.065	500
5	9111	0.065	499
5	9114	0.065	498
5	9117	0.065	497
5	9120	0.065	496
5	9250	0.066	508
5	9253	0.066	507
5	9256	0.066	506
5	9259	0.066	505
5	9262	0.066	504
5	9388	0.067	515
5	9391	0.067	514
5	9394	0.067	513
5	9397	0.067	512
5	9400	0.067	511
5	9530	0.068	523
5	9533	0.068	522
5	9536	0.068	521
5	9539	0.068	520
5	9542	0.068	519
5	9670	0.069	531
5	9673	0.069	530
5	9676	0.069	529
5	9679	0.069	528
5	9682	0.069	527
5	9810	0.07	538
5	9813	0.07	537
5	9816	0.07	536
5	9819	0.07	535
5	9822	0.07	534
5	9952	0.071	546
5	9955	0.071	545
5	9958	0.071	544
5	9961	0.071	543
5	9964	0.071	542
6	93	0.001	12
6	96	0.001	10
6	99	0.001	8
6	102	0.001	6
6	105	0.001	4
6	235	0.002	17
6	238	0.002	15
6	241	0.002	13
6	244	0.002	11
6	247	0.002	9
6	375	0.003	22
6	378	0.003	20
6	381	0.003	18
6	384	0.003	16
6	387	0.003	14
6	517	0.004	27
6	520	0.004	25
6	523	0.004	23
6	526	0.004	21
6	529	0.004	19
6	659	0.005	32
6	662	0.005	30
6	665	0.005	28
6	668	0.005	26
6	671	0.005	24
6	799	0.006	37
6	802	0.006	35
6	805	0.006	33
6	808	0.006	31
6	811	0.006	29
6	939	0.007	41
6	942	0.007	39
6	945	0.007	37
6	948	0.007	35
6	951	0.007	33
6	1081	0.008	46
6	1084	0.008	44
6	1087	0.008	42
6	1090	0.008	40
6	1093	0.008	38
6	1221	0.009	51
6	1224	0.009	49
6	1227	0.009	47
6	1230	0.009	45
6	1233	0.009	43
6	1363	0.01	56
6	1366	0.01	54
6	1369	0.01	52
6	1372	0.01	50
6	1375	0.01	48
6	1505	0.011	61
6	1508	0.011	59
6	1511	0.011	57
6	1514	0.011	55
6	1517	0.011	53
6	1645	0.012	66
6	1648	0.012	64
6	1651	0.012	62
6	1654	0.012	60
6	1657	0.012	58
6	1787	0.013	71
6	1790	0.013	69
6	1793	0.013	67
6	1796	0.013	65
6	1799	0.013	63
6	1923	0.014	75
6	1926	0.014	73
6	1929	0.014	71
6	1932	0.014	69
6	1935	0.014	67
6	2065	0.015	80
6	2068	0.015	78
6	2071	0.015	76
6	2074	0.015	74
6	2077	0.015	72
6	2207	0.016	85
6	2210	0.016	83
6	2213	0.016	81
6	2216	0.016	79
6	2219	0.016	77
6	2347	0.017	90
6	2350	0.017	88
6	2353	0.017	86
6	2356	0.017	84
6	2359	0.017	82
6	2489	0.018	95
6	2492	0.018	93
6	2495	0.018	91
6	2498	0.018	89
6	2501	0.018	87
6	2631	0.019	100
6	2634	0.019	98
6	2637	0.019	96
6	2640	0.019	94
6	2643	0.019	92
6	2771	0.02	105
6	2774	0.02	103
6	2777	0.02	101
6	2780	0.02	99
6	2783	0.02	97
6	2911	0.021	109
6	2914	0.021	107
6	2917	0.021	105
6	2920	0.021	103
6	2923	0.021	101
6	3053	0.022	114
6	3056	0.022	112
6	3059	0.022	110
6	3062	0.022	108
6	3065	0.022	106
6	3193	0.023	119
6	3196	0.023	117
6	3199	0.023	115
6	3202	0.023	113
6	3205	0.023	111
6	3335	0.024	124
6	3338	0.024	122
6	3341	0.024	120
6	3344	0.024	118
6	3347	0.024	116
6	3477	0.025	129
6	3480	0.025	127
6	3483	0.025	125
6	3486	0.025	123
6	3489	0.025	121
6	3617	0.026	134
6	3620	0.026	132
6	3623	0.026	130
6	3626	0.026	128
6	3629	0.026	126
6	3757	0.027	139
6	3760	0.027	137
6	3763	0.027	135
6	3766	0.027	133
6	3769	0.027	131
6	3895	0.028	143
6	3898	0.028	141
6	3901	0.028	139
6	3904	0.028	137
6	3907	0.028	135
6	4037	0.029	148
6	4040	0.029	146
6	4043	0.029	144
6	4046	0.029	142
6	4049	0.029	140
6	4179	0.03	153
6	4182	0.03	151
6	4185	0.03	149
6	4188	0.03	147
6	4191	0.03	145
6	4319	0.031	158
6	4322	0.031	156
6	4325	0.031	154
6	4328	0.031	152
6	4331	0.031	150
6	4461	0.032	163
6	4464	0.032	161
6	4467	0.032	159
6	4470	0.032	157
6	4473	0.032	155
6	4603	0.033	168
6	4606	0.033	166
6	4609	0.033	164
6	4612	0.033	162
6	4615	0.033	160
6	4743	0.034	173
6	4746	0.034	171
6	4749	0.034	169
6	4752	0.034	167
6	4755	0.034	165
6	4883	0.035	177
6	4886	0.035	175
6	4889	0.035	173
6	4892	0.035	171
6	4895	0.035	169
6	5025	0.036	182
6	5028	0.036	180
6	5031	0.036	178
6	5034	0.036	176
6	5037	0.036	174
6	5165	0.037	187
6	5168	0.037	185
6	5171	0.037	183
6	5174	0.037	181
6	5177	0.037	179
6	5307	0.038	192
6	5310	0.038	190
6	5313	0.038	188
6	5316	0.038	186
6	5319	0.038	184
6	5447	0.039	197
6	5450	0.039	195
6	5453	0.039	193
6	5456	0.039	191
6	5459	0.039	189
6	5589	0.04	202
6	5592	0.04	200
6	5595	0.04	198
6	5598	0.04	196
6	5601	0.04	194
6	5729	0.041	207
6	5732	0.041	205
6	5735	0.041	203
6	5738	0.041	201
6	5741	0.041	199
6	5867	0.042	211
6	5870	0.042	209
6	5873	0.042	207
6	5876	0.042	205
6	5879	0.042	203
6	6009	0.043	216
6	6012	0.043	214
6	6015	0.043	212
6	6018	0.043	210
6	6021	0.043	208
6	6151	0.044	221
6	6154	0.044	219
6	6157	0.044	217
6	6160	0.044	215
6	6163	0.044	213
6	6291	0.045	226
6	6294	0.045	224
6	6297	0.045	222
6	6300	0.045	220
6	6303	0.045	218
6	6433	0.046	231
6	6436	0.046	229
6	6439	0.046	227
6	6442	0.046	225
6	6445	0.046	223
6	6575	0.047	236
6	6578	0.047	234
6	6581	0.047	232
6	6584	0.047	230
6	6587	0.047	228
6	6715	0.048	241
6	6718	0.048	239
6	6721	0.048	237
6	6724	0.048	235
6	6727	0.048	233
6	6855	0.049	245
6	6858	0.049	243
6	6861	0.049	241
6	6864	0.049	239
6	6867	0.049	237
6	6997	0.05	250
6	7000	0.05	248
6	7003	0.05	246
6	7006	0.05	244
6	7009	0.05	242
6	7137	0.051	255
6	7140	0.051	253
6	7143	0.051	251
6	7146	0.051	249
6	7149	0.051	247
6	7279	0.052	260
6	7282	0.052	258
6	7285	0.052	256
6	7288	0.052	254
6	7291	0.052	252
6	7419	0.053	265
6	7422	0.053	263
6	7425	0.053	261
6	7428	0.053	259
6	7431	0.053	257
6	7559	0.054	270
6	7562	0.054	268
6	7565	0.054	266
6	7568	0.054	264
6	7571	0.054	262
6	7701	0.055	275
6	7704	0.055	273
6	7707	0.055	271
6	7710	0.055	269
6	7713	0.055	267
6	7839	0.056	279
6	7842	0.056	277
6	7845	0.056	275
6	7848	0.056	273
6	7851	0.056	271
6	7981	0.057	284
6	7984	0.057	282
6	7987	0.057	280
6	7990	0.057	278
6	7993	0.057	276
6	8123	0.058	289
6	8126	0.058	287
6	8129	0.058	285
6	8132	0.058	283
6	8135	0.058	281
6	8263	0.059	294
6	8266	0.059	292
6	8269	0.059	290
6	8272	0.059	288
6	8275	0.059	286
6	8405	0.06	299
6	8408	0.06	297
6	8411	0.06	295
6	8414	0.06	293
6	8417	0.06	291
6	8547	0.061	304
6	8550	0.061	302
6	8553	0.061	300
6	8556	0.061	298
6	8559	0.061	296
6	8687	0.062	309
6	8690	0.062	307
6	8693	0.062	305
6	8696	0.062	303
6	8699	0.062	301
6	8827	0.063	313
6	8830	0.063	311
6	8833	0.063	309
6	8836	0.063	307
6	8839	0.063	305
6	8969	0.064	318
6	8972	0.064	316
6	8975	0.064	314
6	8978	0.064	312
6	8981	0.064	310
6	9109	0.065	323
6	9112	0.065	321
6	9115	0.065	319
6	9118	0.065	317
6	9121	0.065	315
6	9251	0.066	328
6	9254	0.066	326
6	9257	0.066	324
6	9260	0.066	322
6	9263	0.066	320
6	9389	0.067	333
6	9392	0.067	331
6	9395	0.067	329
6	9398	0.067	327
6	9401	0.067	325
6	9531	0.068	338
6	9534	0.068	336
6	9537	0.068	334
6	9540	0.068	332
6	9543	0.068	330
6	9671	0.069	342
6	9674	0.069	340
6	9677	0.069	338
6	9680	0.069	336
6	9683	0.069	334
6	9811	0.07	347
6	9814	0.07	345
6	9817	0.07	343
6	9820	0.07	341
6	9823	0.07	339
6	9953	0.071	352
6	9956	0.071	350
6	9959	0.071	348
6	9962	0.071	346
6	9965	0.071	344
7	94	0.001	13
7	97	0.001	10
7	100	0.001	7
7	103	0.001	4
7	106	0.001	1
7	236	0.002	15
7	239	0.002	12
7	242	0.002	9
7	245	0.002	6
7	248	0.002	3
7	376	0.003	17
7	379	0.003	14
7	382	0.003	11
7	385	0.003	8
7	388	0.003	5
7	518	0.004	19
7	521	0.004	16
7	524	0.004	13
7	527	0.004	10
7	530	0.004	7
7	660	0.005	21
7	663	0.005	18
7	666	0.005	15
7	669	0.005	12
7	672	0.005	9
7	800	0.006	23
7	803	0.006	20
7	806	0.006	17
7	809	0.006	14
7	812	0.006	11
7	940	0.007	25
7	943	0.007	22
7	946	0.007	19
7	949	0.007	16
7	952	0.007	13
7	1082	0.008	27
7	1085	0.008	24
7	1088	0.008	21
7	1091	0.008	18
7	1094	0.008	15
7	1222	0.009	29
7	1225	0.009	26
7	1228	0.009	23
7	1231	0.009	20
7	1234	0.009	17
7	1364	0.01	31
7	1367	0.01	28
7	1370	0.01	25
7	1373	0.01	22
7	1376	0.01	19
7	1506	0.011	33
7	1509	0.011	30
7	1512	0.011	27
7	1515	0.011	24
7	1518	0.011	21
7	1646	0.012	35
7	1649	0.012	32
7	1652	0.012	29
7	1655	0.012	26
7	1658	0.012	23
7	1788	0.013	37
7	1791	0.013	34
7	1794	0.013	31
7	1797	0.013	28
7	1800	0.013	25
7	1924	0.014	38
7	1927	0.014	35
7	1930	0.014	32
7	1933	0.014	29
7	1936	0.014	26
7	2066	0.015	40
7	2069	0.015	37
7	2072	0.015	34
7	2075	0.015	31
7	2078	0.015	28
7	2208	0.016	42
7	2211	0.016	39
7	2214	0.016	36
7	2217	0.016	33
7	2220	0.016	30
7	2348	0.017	44
7	2351	0.017	41
7	2354	0.017	38
7	2357	0.017	35
7	2360	0.017	32
7	2490	0.018	46
7	2493	0.018	43
7	2496	0.018	40
7	2499	0.018	37
7	2502	0.018	34
7	2632	0.019	48
7	2635	0.019	45
7	2638	0.019	42
7	2641	0.019	39
7	2644	0.019	36
7	2772	0.02	50
7	2775	0.02	47
7	2778	0.02	44
7	2781	0.02	41
7	2784	0.02	38
7	2912	0.021	52
7	2915	0.021	49
7	2918	0.021	46
7	2921	0.021	43
7	2924	0.021	40
7	3054	0.022	54
7	3057	0.022	51
7	3060	0.022	48
7	3063	0.022	45
7	3066	0.022	42
7	3194	0.023	56
7	3197	0.023	53
7	3200	0.023	50
7	3203	0.023	47
7	3206	0.023	44
7	3336	0.024	58
7	3339	0.024	55
7	3342	0.024	52
7	3345	0.024	49
7	3348	0.024	46
7	3478	0.025	60
7	3481	0.025	57
7	3484	0.025	54
7	3487	0.025	51
7	3490	0.025	48
7	3618	0.026	62
7	3621	0.026	59
7	3624	0.026	56
7	3627	0.026	53
7	3630	0.026	50
7	3758	0.027	63
7	3761	0.027	60
7	3764	0.027	57
7	3767	0.027	54
7	3770	0.027	51
7	3896	0.028	65
7	3899	0.028	62
7	3902	0.028	59
7	3905	0.028	56
7	3908	0.028	53
7	4038	0.029	67
7	4041	0.029	64
7	4044	0.029	61
7	4047	0.029	58
7	4050	0.029	55
7	4180	0.03	69
7	4183	0.03	66
7	4186	0.03	63
7	4189	0.03	60
7	4192	0.03	57
7	4320	0.031	71
7	4323	0.031	68
7	4326	0.031	65
7	4329	0.031	62
7	4332	0.031	59
7	4462	0.032	73
7	4465	0.032	70
7	4468	0.032	67
7	4471	0.032	64
7	4474	0.032	61
7	4604	0.033	75
7	4607	0.033	72
7	4610	0.033	69
7	4613	0.033	66
7	4616	0.033	63
7	4744	0.034	77
7	4747	0.034	74
7	4750	0.034	71
7	4753	0.034	68
7	4756	0.034	65
7	4884	0.035	79
7	4887	0.035	76
7	4890	0.035	73
7	4893	0.035	70
7	4896	0.035	67
7	5026	0.036	81
7	5029	0.036	78
7	5032	0.036	75
7	5035	0.036	72
7	5038	0.036	69
7	5166	0.037	83
7	5169	0.037	80
7	5172	0.037	77
7	5175	0.037	74
7	5178	0.037	71
7	5308	0.038	85
7	5311	0.038	82
7	5314	0.038	79
7	5317	0.038	76
7	5320	0.038	73
7	5448	0.039	87
7	5451	0.039	84
7	5454	0.039	81
7	5457	0.039	78
7	5460	0.039	75
7	5590	0.04	89
7	5593	0.04	86
7	5596	0.04	83
7	5599	0.04	80
7	5602	0.04	77
7	5730	0.041	90
7	5733	0.041	87
7	5736	0.041	84
7	5739	0.041	81
7	5742	0.041	78
7	5868	0.042	92
7	5871	0.042	89
7	5874	0.042	86
7	5877	0.042	83
7	5880	0.042	80
7	6010	0.043	94
7	6013	0.043	91
7	6016	0.043	88
7	6019	0.043	85
7	6022	0.043	82
7	6152	0.044	96
7	6155	0.044	93
7	6158	0.044	90
7	6161	0.044	87
7	6164	0.044	84
7	6292	0.045	98
7	6295	0.045	95
7	6298	0.045	92
7	6301	0.045	89
7	6304	0.045	86
7	6434	0.046	100
7	6437	0.046	97
7	6440	0.046	94
7	6443	0.046	91
7	6446	0.046	88
7	6576	0.047	102
7	6579	0.047	99
7	6582	0.047	96
7	6585	0.047	93
7	6588	0.047	90
7	6716	0.048	104
7	6719	0.048	101
7	6722	0.048	98
7	6725	0.048	95
7	6728	0.048	92
7	6856	0.049	106
7	6859	0.049	103
7	6862	0.049	100
7	6865	0.049	97
7	6868	0.049	94
7	6998	0.05	108
7	7001	0.05	105
7	7004	0.05	102
7	7007	0.05	99
7	7010	0.05	96
7	7138	0.051	110
7	7141	0.051	107
7	7144	0.051	104
7	7147	0.051	101
7	7150	0.051	98
7	7280	0.052	112
7	7283	0.052	109
7	7286	0.052	106
7	7289	0.052	103
7	7292	0.052	100
7	7420	0.053	114
7	7423	0.053	111
7	7426	0.053	108
7	7429	0.053	105
7	7432	0.053	102
7	7560	0.054	115
7	7563	0.054	112
7	7566	0.054	109
7	7569	0.054	106
7	7572	0.054	103
7	7702	0.055	117
7	7705	0.055	114
7	7708	0.055	111
7	7711	0.055	108
7	7714	0.055	105
7	7840	0.056	119
7	7843	0.056	116
7	7846	0.056	113
7	7849	0.056	110
7	7852	0.056	107
7	7982	0.057	121
7	7985	0.057	118
7	7988	0.057	115
7	7991	0.057	112
7	7994	0.057	109
7	8124	0.058	123
7	8127	0.058	120
7	8130	0.058	117
7	8133	0.058	114
7	8136	0.058	111
7	8264	0.059	125
7	8267	0.059	122
7	8270	0.059	119
7	8273	0.059	116
7	8276	0.059	113
7	8406	0.06	127
7	8409	0.06	124
7	8412	0.06	121
7	8415	0.06	118
7	8418	0.06	115
7	8548	0.061	129
7	8551	0.061	126
7	8554	0.061	123
7	8557	0.061	120
7	8560	0.061	117
7	8688	0.062	131
7	8691	0.062	128
7	8694	0.062	125
7	8697	0.062	122
7	8700	0.062	119
7	8828	0.063	133
7	8831	0.063	130
7	8834	0.063	127
7	8837	0.063	124
7	8840	0.063	121
7	8970	0.064	135
7	8973	0.064	132
7	8976	0.064	129
7	8979	0.064	126
7	8982	0.064	123
7	9110	0.065	137
7	9113	0.065	134
7	9116	0.065	131
7	9119	0.065	128
7	9122	0.065	125
7	9252	0.066	139
7	9255	0.066	136
7	9258	0.066	133
7	9261	0.066	130
7	9264	0.066	127
7	9390	0.067	140
7	9393	0.067	137
7	9396	0.067	134
7	9399	0.067	131
7	9402	0.067	128
7	9532	0.068	142
7	9535	0.068	139
7	9538	0.068	136
7	9541	0.068	133
7	9544	0.068	130
7	9672	0.069	144
7	9675	0.069	141
7	9678	0.069	138
7	9681	0.069	135
7	9684	0.069	132
7	9812	0.07	146
7	9815	0.07	143
7	9818	0.07	140
7	9821	0.07	137
7	9824	0.07	134
7	9954	0.071	148
7	9957	0.071	145
7	9960	0.071	142
7	9963	0.071	139
7	9966	0.071	136
8	107	0.001	0.000931698217
8	108	0.001	0.000863396434
8	109	0.001	0.000795094651
8	110	0.001	0.000932682611
8	111	0.001	0.000865365222
8	112	0.001	0.000932999554
8	113	0.001	0.000726792868
8	114	0.001	0.000798047833
8	115	0.001	0.000730730444
8	116	0.001	0.000865999108
8	117	0.001	0.000798998662
8	118	0.001	0.000731998216
8	119	0.001	0.000658491085
8	120	0.001	0.000663413055
8	121	0.001	0.000596095666
8	122	0.001	0.00066499777
8	123	0.001	0.000597997324
8	124	0.001	0.000530996878
8	125	0.001	0.000590189302
8	126	0.001	0.000528778277
8	127	0.001	0.000461460888
8	128	0.001	0.000463996432
8	129	0.001	0.000396995986
8	130	0.001	0.00032999554
8	131	0.001	0.000521887519
8	132	0.001	0.000394143499
8	133	0.001	0.00032682611
8	134	0.001	0.000262995094
8	135	0.001	0.000195994648
8	136	0.001	0.000128994202
8	249	0.002	0.001453585736
8	250	0.002	0.001385283953
8	251	0.002	0.00131698217
8	252	0.002	0.001259508721
8	253	0.002	0.001192191332
8	254	0.002	0.001061993756
8	255	0.002	0.001248680387
8	256	0.002	0.001124873943
8	257	0.002	0.001057556554
8	258	0.002	0.00099499331
8	259	0.002	0.000927992864
8	260	0.002	0.000860992418
8	261	0.002	0.001180378604
8	262	0.002	0.000990239165
8	263	0.002	0.000922921776
8	264	0.002	0.000793991972
8	265	0.002	0.000726991526
8	266	0.002	0.00065999108
8	267	0.002	0.001112076821
8	268	0.002	0.000855604387
8	269	0.002	0.000788286998
8	270	0.002	0.000592990634
8	271	0.002	0.000525990188
8	272	0.002	0.000458989742
8	273	0.002	0.001043775038
8	274	0.002	0.000720969609
8	275	0.002	0.00065365222
8	276	0.002	0.000391989296
8	277	0.002	0.00032498885
8	278	0.002	0.000257988404
8	389	0.003	0.001975473255
8	390	0.003	0.001907171472
8	391	0.003	0.001838869689
8	392	0.003	0.001586334831
8	393	0.003	0.001519017442
8	394	0.003	0.001190987958
8	395	0.003	0.001770567906
8	396	0.003	0.001451700053
8	397	0.003	0.001384382664
8	398	0.003	0.001123987512
8	399	0.003	0.001056987066
8	400	0.003	0.00098998662
8	401	0.003	0.001702266123
8	402	0.003	0.001317065275
8	403	0.003	0.001249747886
8	404	0.003	0.000922986174
8	405	0.003	0.000855985728
8	406	0.003	0.000788985282
8	407	0.003	0.00163396434
8	408	0.003	0.001182430497
8	409	0.003	0.001115113108
8	410	0.003	0.000721984836
8	411	0.003	0.00065498439
8	412	0.003	0.000587983944
8	413	0.003	0.001565662557
8	414	0.003	0.001047795719
8	415	0.003	0.00098047833
8	416	0.003	0.000520983498
8	417	0.003	0.000453983052
8	418	0.003	0.000386982606
8	531	0.004	0.002497360774
8	532	0.004	0.002429058991
8	533	0.004	0.002360757208
8	534	0.004	0.001913160941
8	535	0.004	0.001845843552
8	536	0.004	0.00131998216
8	537	0.004	0.002292455425
8	538	0.004	0.001778526163
8	539	0.004	0.001711208774
8	540	0.004	0.001252981714
8	541	0.004	0.001185981268
8	542	0.004	0.001118980822
8	543	0.004	0.002224153642
8	544	0.004	0.001643891385
8	545	0.004	0.001576573996
8	546	0.004	0.001051980376
8	547	0.004	0.00098497993
8	548	0.004	0.000917979484
8	549	0.004	0.002155851859
8	550	0.004	0.001509256607
8	551	0.004	0.001441939218
8	552	0.004	0.000850979038
8	553	0.004	0.000783978592
8	554	0.004	0.000716978146
8	555	0.004	0.002087550076
8	556	0.004	0.001374621829
8	557	0.004	0.00130730444
8	558	0.004	0.0006499777
8	559	0.004	0.000582977254
8	560	0.004	0.000515976808
8	673	0.005	0.003019248293
8	674	0.005	0.00295094651
8	675	0.005	0.002882644727
8	676	0.005	0.002239987051
8	677	0.005	0.002172669662
8	678	0.005	0.001448976362
8	679	0.005	0.002814342944
8	680	0.005	0.002105352273
8	681	0.005	0.002038034884
8	682	0.005	0.001381975916
8	683	0.005	0.00131497547
8	684	0.005	0.001247975024
8	685	0.005	0.002746041161
8	686	0.005	0.001970717495
8	687	0.005	0.001903400106
8	688	0.005	0.001180974578
8	689	0.005	0.001113974132
8	690	0.005	0.001046973686
8	691	0.005	0.002677739378
8	692	0.005	0.001836082717
8	693	0.005	0.001768765328
8	694	0.005	0.00097997324
8	695	0.005	0.000912972794
8	696	0.005	0.000845972348
8	697	0.005	0.002609437595
8	698	0.005	0.001701447939
8	699	0.005	0.00163413055
8	700	0.005	0.000778971902
8	701	0.005	0.000711971456
8	702	0.005	0.00064497101
8	813	0.006	0.003541135812
8	814	0.006	0.003472834029
8	815	0.006	0.003404532246
8	816	0.006	0.002566813161
8	817	0.006	0.002499495772
8	818	0.006	0.001577970564
8	819	0.006	0.003336230463
8	820	0.006	0.002432178383
8	821	0.006	0.002364860994
8	822	0.006	0.001510970118
8	823	0.006	0.001443969672
8	824	0.006	0.001376969226
8	825	0.006	0.00326792868
8	826	0.006	0.002297543605
8	827	0.006	0.002230226216
8	828	0.006	0.00130996878
8	829	0.006	0.001242968334
8	830	0.006	0.001175967888
8	831	0.006	0.003199626897
8	832	0.006	0.002162908827
8	833	0.006	0.002095591438
8	834	0.006	0.001108967442
8	835	0.006	0.001041966996
8	836	0.006	0.00097496655
8	837	0.006	0.003131325114
8	838	0.006	0.002028274049
8	839	0.006	0.00196095666
8	840	0.006	0.000907966104
8	841	0.006	0.000840965658
8	842	0.006	0.000773965212
8	953	0.007	0.004063023331
8	954	0.007	0.003994721548
8	955	0.007	0.003926419765
8	956	0.007	0.002893639271
8	957	0.007	0.002826321882
8	958	0.007	0.001706964766
8	959	0.007	0.003858117982
8	960	0.007	0.002759004493
8	961	0.007	0.002691687104
8	962	0.007	0.00163996432
8	963	0.007	0.001572963874
8	964	0.007	0.001505963428
8	965	0.007	0.003789816199
8	966	0.007	0.002624369715
8	967	0.007	0.002557052326
8	968	0.007	0.001438962982
8	969	0.007	0.001371962536
8	970	0.007	0.00130496209
8	971	0.007	0.003721514416
8	972	0.007	0.002489734937
8	973	0.007	0.002422417548
8	974	0.007	0.001237961644
8	975	0.007	0.001170961198
8	976	0.007	0.001103960752
8	977	0.007	0.003653212633
8	978	0.007	0.002355100159
8	979	0.007	0.00228778277
8	980	0.007	0.001036960306
8	981	0.007	0.00096995986
8	982	0.007	0.000902959414
8	1095	0.008	0.00458491085
8	1096	0.008	0.004516609067
8	1097	0.008	0.004448307284
8	1098	0.008	0.003220465381
8	1099	0.008	0.003153147992
8	1100	0.008	0.001835958968
8	1101	0.008	0.004380005501
8	1102	0.008	0.003085830603
8	1103	0.008	0.003018513214
8	1104	0.008	0.001768958522
8	1105	0.008	0.001701958076
8	1106	0.008	0.00163495763
8	1107	0.008	0.004311703718
8	1108	0.008	0.002951195825
8	1109	0.008	0.002883878436
8	1110	0.008	0.001567957184
8	1111	0.008	0.001500956738
8	1112	0.008	0.001433956292
8	1113	0.008	0.004243401935
8	1114	0.008	0.002816561047
8	1115	0.008	0.002749243658
8	1116	0.008	0.001366955846
8	1117	0.008	0.0012999554
8	1118	0.008	0.001232954954
8	1119	0.008	0.004175100152
8	1120	0.008	0.002681926269
8	1121	0.008	0.00261460888
8	1122	0.008	0.001165954508
8	1123	0.008	0.001098954062
8	1124	0.008	0.001031953616
8	1235	0.009	0.005106798369
8	1236	0.009	0.005038496586
8	1237	0.009	0.004970194803
8	1238	0.009	0.003547291491
8	1239	0.009	0.003479974102
8	1240	0.009	0.00196495317
8	1241	0.009	0.00490189302
8	1242	0.009	0.003412656713
8	1243	0.009	0.003345339324
8	1244	0.009	0.001897952724
8	1245	0.009	0.001830952278
8	1246	0.009	0.001763951832
8	1247	0.009	0.004833591237
8	1248	0.009	0.003278021935
8	1249	0.009	0.003210704546
8	1250	0.009	0.001696951386
8	1251	0.009	0.00162995094
8	1252	0.009	0.001562950494
8	1253	0.009	0.004765289454
8	1254	0.009	0.003143387157
8	1255	0.009	0.003076069768
8	1256	0.009	0.001495950048
8	1257	0.009	0.001428949602
8	1258	0.009	0.001361949156
8	1259	0.009	0.004696987671
8	1260	0.009	0.003008752379
8	1261	0.009	0.00294143499
8	1262	0.009	0.00129494871
8	1263	0.009	0.001227948264
8	1264	0.009	0.001160947818
8	1377	0.01	0.005628685888
8	1378	0.01	0.005560384105
8	1379	0.01	0.005492082322
8	1380	0.01	0.003874117601
8	1381	0.01	0.003806800212
8	1382	0.01	0.002093947372
8	1383	0.01	0.005423780539
8	1384	0.01	0.003739482823
8	1385	0.01	0.003672165434
8	1386	0.01	0.002026946926
8	1387	0.01	0.00195994648
8	1388	0.01	0.001892946034
8	1389	0.01	0.005355478756
8	1390	0.01	0.003604848045
8	1391	0.01	0.003537530656
8	1392	0.01	0.001825945588
8	1393	0.01	0.001758945142
8	1394	0.01	0.001691944696
8	1395	0.01	0.005287176973
8	1396	0.01	0.003470213267
8	1397	0.01	0.003402895878
8	1398	0.01	0.00162494425
8	1399	0.01	0.001557943804
8	1400	0.01	0.001490943358
8	1401	0.01	0.00521887519
8	1402	0.01	0.003335578489
8	1403	0.01	0.0032682611
8	1404	0.01	0.001423942912
8	1405	0.01	0.001356942466
8	1406	0.01	0.00128994202
8	1519	0.011	0.006150573407
8	1520	0.011	0.006082271624
8	1521	0.011	0.006013969841
8	1522	0.011	0.004200943711
8	1523	0.011	0.004133626322
8	1524	0.011	0.002222941574
8	1525	0.011	0.005945668058
8	1526	0.011	0.004066308933
8	1527	0.011	0.003998991544
8	1528	0.011	0.002155941128
8	1529	0.011	0.002088940682
8	1530	0.011	0.002021940236
8	1531	0.011	0.005877366275
8	1532	0.011	0.003931674155
8	1533	0.011	0.003864356766
8	1534	0.011	0.00195493979
8	1535	0.011	0.001887939344
8	1536	0.011	0.001820938898
8	1537	0.011	0.005809064492
8	1538	0.011	0.003797039377
8	1539	0.011	0.003729721988
8	1540	0.011	0.001753938452
8	1541	0.011	0.001686938006
8	1542	0.011	0.00161993756
8	1543	0.011	0.005740762709
8	1544	0.011	0.003662404599
8	1545	0.011	0.00359508721
8	1546	0.011	0.001552937114
8	1547	0.011	0.001485936668
8	1548	0.011	0.001418936222
8	1659	0.012	0.006672460926
8	1660	0.012	0.006604159143
8	1661	0.012	0.00653585736
8	1662	0.012	0.004527769821
8	1663	0.012	0.004460452432
8	1664	0.012	0.002351935776
8	1665	0.012	0.006467555577
8	1666	0.012	0.004393135043
8	1667	0.012	0.004325817654
8	1668	0.012	0.00228493533
8	1669	0.012	0.002217934884
8	1670	0.012	0.002150934438
8	1671	0.012	0.006399253794
8	1672	0.012	0.004258500265
8	1673	0.012	0.004191182876
8	1674	0.012	0.002083933992
8	1675	0.012	0.002016933546
8	1676	0.012	0.0019499331
8	1677	0.012	0.006330952011
8	1678	0.012	0.004123865487
8	1679	0.012	0.004056548098
8	1680	0.012	0.001882932654
8	1681	0.012	0.001815932208
8	1682	0.012	0.001748931762
8	1683	0.012	0.006262650228
8	1684	0.012	0.003989230709
8	1685	0.012	0.00392191332
8	1686	0.012	0.001681931316
8	1687	0.012	0.00161493087
8	1688	0.012	0.001547930424
8	1801	0.013	0.007194348445
8	1802	0.013	0.007126046662
8	1803	0.013	0.007057744879
8	1804	0.013	0.004854595931
8	1805	0.013	0.004787278542
8	1806	0.013	0.002480929978
8	1807	0.013	0.006989443096
8	1808	0.013	0.004719961153
8	1809	0.013	0.004652643764
8	1810	0.013	0.002413929532
8	1811	0.013	0.002346929086
8	1812	0.013	0.00227992864
8	1813	0.013	0.006921141313
8	1814	0.013	0.004585326375
8	1815	0.013	0.004518008986
8	1816	0.013	0.002212928194
8	1817	0.013	0.002145927748
8	1818	0.013	0.002078927302
8	1819	0.013	0.00685283953
8	1820	0.013	0.004450691597
8	1821	0.013	0.004383374208
8	1822	0.013	0.002011926856
8	1823	0.013	0.00194492641
8	1824	0.013	0.001877925964
8	1825	0.013	0.006784537747
8	1826	0.013	0.004316056819
8	1827	0.013	0.00424873943
8	1828	0.013	0.001810925518
8	1829	0.013	0.001743925072
8	1830	0.013	0.001676924626
8	1937	0.014	0.007716235964
8	1938	0.014	0.007647934181
8	1939	0.014	0.007579632398
8	1940	0.014	0.005181422041
8	1941	0.014	0.005114104652
8	1942	0.014	0.00260992418
8	1943	0.014	0.007511330615
8	1944	0.014	0.005046787263
8	1945	0.014	0.004979469874
8	1946	0.014	0.002542923734
8	1947	0.014	0.002475923288
8	1948	0.014	0.002408922842
8	1949	0.014	0.007443028832
8	1950	0.014	0.004912152485
8	1951	0.014	0.004844835096
8	1952	0.014	0.002341922396
8	1953	0.014	0.00227492195
8	1954	0.014	0.002207921504
8	1955	0.014	0.007374727049
8	1956	0.014	0.004777517707
8	1957	0.014	0.004710200318
8	1958	0.014	0.002140921058
8	1959	0.014	0.002073920612
8	1960	0.014	0.002006920166
8	1961	0.014	0.007306425266
8	1962	0.014	0.004642882929
8	1963	0.014	0.00457556554
8	1964	0.014	0.00193991972
8	1965	0.014	0.001872919274
8	1966	0.014	0.001805918828
8	2079	0.015	0.008238123483
8	2080	0.015	0.0081698217
8	2081	0.015	0.008101519917
8	2082	0.015	0.005508248151
8	2083	0.015	0.005440930762
8	2084	0.015	0.002738918382
8	2085	0.015	0.008033218134
8	2086	0.015	0.005373613373
8	2087	0.015	0.005306295984
8	2088	0.015	0.002671917936
8	2089	0.015	0.00260491749
8	2090	0.015	0.002537917044
8	2091	0.015	0.007964916351
8	2092	0.015	0.005238978595
8	2093	0.015	0.005171661206
8	2094	0.015	0.002470916598
8	2095	0.015	0.002403916152
8	2096	0.015	0.002336915706
8	2097	0.015	0.007896614568
8	2098	0.015	0.005104343817
8	2099	0.015	0.005037026428
8	2100	0.015	0.00226991526
8	2101	0.015	0.002202914814
8	2102	0.015	0.002135914368
8	2103	0.015	0.007828312785
8	2104	0.015	0.004969709039
8	2105	0.015	0.00490239165
8	2106	0.015	0.002068913922
8	2107	0.015	0.002001913476
8	2108	0.015	0.00193491303
8	2221	0.016	0.008760011002
8	2222	0.016	0.008691709219
8	2223	0.016	0.008623407436
8	2224	0.016	0.005835074261
8	2225	0.016	0.005767756872
8	2226	0.016	0.002867912584
8	2227	0.016	0.008555105653
8	2228	0.016	0.005700439483
8	2229	0.016	0.005633122094
8	2230	0.016	0.002800912138
8	2231	0.016	0.002733911692
8	2232	0.016	0.002666911246
8	2233	0.016	0.00848680387
8	2234	0.016	0.005565804705
8	2235	0.016	0.005498487316
8	2236	0.016	0.0025999108
8	2237	0.016	0.002532910354
8	2238	0.016	0.002465909908
8	2239	0.016	0.008418502087
8	2240	0.016	0.005431169927
8	2241	0.016	0.005363852538
8	2242	0.016	0.002398909462
8	2243	0.016	0.002331909016
8	2244	0.016	0.00226490857
8	2245	0.016	0.008350200304
8	2246	0.016	0.005296535149
8	2247	0.016	0.00522921776
8	2248	0.016	0.002197908124
8	2249	0.016	0.002130907678
8	2250	0.016	0.002063907232
8	2361	0.017	0.009281898521
8	2362	0.017	0.009213596738
8	2363	0.017	0.009145294955
8	2364	0.017	0.006161900371
8	2365	0.017	0.006094582982
8	2366	0.017	0.002996906786
8	2367	0.017	0.009076993172
8	2368	0.017	0.006027265593
8	2369	0.017	0.005959948204
8	2370	0.017	0.00292990634
8	2371	0.017	0.002862905894
8	2372	0.017	0.002795905448
8	2373	0.017	0.009008691389
8	2374	0.017	0.005892630815
8	2375	0.017	0.005825313426
8	2376	0.017	0.002728905002
8	2377	0.017	0.002661904556
8	2378	0.017	0.00259490411
8	2379	0.017	0.008940389606
8	2380	0.017	0.005757996037
8	2381	0.017	0.005690678648
8	2382	0.017	0.002527903664
8	2383	0.017	0.002460903218
8	2384	0.017	0.002393902772
8	2385	0.017	0.008872087823
8	2386	0.017	0.005623361259
8	2387	0.017	0.00555604387
8	2388	0.017	0.002326902326
8	2389	0.017	0.00225990188
8	2390	0.017	0.002192901434
8	2503	0.018	0.00980378604
8	2504	0.018	0.009735484257
8	2505	0.018	0.009667182474
8	2506	0.018	0.006488726481
8	2507	0.018	0.006421409092
8	2508	0.018	0.003125900988
8	2509	0.018	0.009598880691
8	2510	0.018	0.006354091703
8	2511	0.018	0.006286774314
8	2512	0.018	0.003058900542
8	2513	0.018	0.002991900096
8	2514	0.018	0.00292489965
8	2515	0.018	0.009530578908
8	2516	0.018	0.006219456925
8	2517	0.018	0.006152139536
8	2518	0.018	0.002857899204
8	2519	0.018	0.002790898758
8	2520	0.018	0.002723898312
8	2521	0.018	0.009462277125
8	2522	0.018	0.006084822147
8	2523	0.018	0.006017504758
8	2524	0.018	0.002656897866
8	2525	0.018	0.00258989742
8	2526	0.018	0.002522896974
8	2527	0.018	0.009393975342
8	2528	0.018	0.005950187369
8	2529	0.018	0.00588286998
8	2530	0.018	0.002455896528
8	2531	0.018	0.002388896082
8	2532	0.018	0.002321895636
8	2645	0.019	0.010325673559
8	2646	0.019	0.010257371776
8	2647	0.019	0.010189069993
8	2648	0.019	0.006815552591
8	2649	0.019	0.006748235202
8	2650	0.019	0.00325489519
8	2651	0.019	0.01012076821
8	2652	0.019	0.006680917813
8	2653	0.019	0.006613600424
8	2654	0.019	0.003187894744
8	2655	0.019	0.003120894298
8	2656	0.019	0.003053893852
8	2657	0.019	0.010052466427
8	2658	0.019	0.006546283035
8	2659	0.019	0.006478965646
8	2660	0.019	0.002986893406
8	2661	0.019	0.00291989296
8	2662	0.019	0.002852892514
8	2663	0.019	0.009984164644
8	2664	0.019	0.006411648257
8	2665	0.019	0.006344330868
8	2666	0.019	0.002785892068
8	2667	0.019	0.002718891622
8	2668	0.019	0.002651891176
8	2669	0.019	0.009915862861
8	2670	0.019	0.006277013479
8	2671	0.019	0.00620969609
8	2672	0.019	0.00258489073
8	2673	0.019	0.002517890284
8	2674	0.019	0.002450889838
8	2785	0.02	0.010847561078
8	2786	0.02	0.010779259295
8	2787	0.02	0.010710957512
8	2788	0.02	0.007142378701
8	2789	0.02	0.007075061312
8	2790	0.02	0.003383889392
8	2791	0.02	0.010642655729
8	2792	0.02	0.007007743923
8	2793	0.02	0.006940426534
8	2794	0.02	0.003316888946
8	2795	0.02	0.0032498885
8	2796	0.02	0.003182888054
8	2797	0.02	0.010574353946
8	2798	0.02	0.006873109145
8	2799	0.02	0.006805791756
8	2800	0.02	0.003115887608
8	2801	0.02	0.003048887162
8	2802	0.02	0.002981886716
8	2803	0.02	0.010506052163
8	2804	0.02	0.006738474367
8	2805	0.02	0.006671156978
8	2806	0.02	0.00291488627
8	2807	0.02	0.002847885824
8	2808	0.02	0.002780885378
8	2809	0.02	0.01043775038
8	2810	0.02	0.006603839589
8	2811	0.02	0.0065365222
8	2812	0.02	0.002713884932
8	2813	0.02	0.002646884486
8	2814	0.02	0.00257988404
8	2925	0.021	0.011369448597
8	2926	0.021	0.011301146814
8	2927	0.021	0.011232845031
8	2928	0.021	0.007469204811
8	2929	0.021	0.007401887422
8	2930	0.021	0.003512883594
8	2931	0.021	0.011164543248
8	2932	0.021	0.007334570033
8	2933	0.021	0.007267252644
8	2934	0.021	0.003445883148
8	2935	0.021	0.003378882702
8	2936	0.021	0.003311882256
8	2937	0.021	0.011096241465
8	2938	0.021	0.007199935255
8	2939	0.021	0.007132617866
8	2940	0.021	0.00324488181
8	2941	0.021	0.003177881364
8	2942	0.021	0.003110880918
8	2943	0.021	0.011027939682
8	2944	0.021	0.007065300477
8	2945	0.021	0.006997983088
8	2946	0.021	0.003043880472
8	2947	0.021	0.002976880026
8	2948	0.021	0.00290987958
8	2949	0.021	0.010959637899
8	2950	0.021	0.006930665699
8	2951	0.021	0.00686334831
8	2952	0.021	0.002842879134
8	2953	0.021	0.002775878688
8	2954	0.021	0.002708878242
8	3067	0.022	0.011891336116
8	3068	0.022	0.011823034333
8	3069	0.022	0.01175473255
8	3070	0.022	0.007796030921
8	3071	0.022	0.007728713532
8	3072	0.022	0.003641877796
8	3073	0.022	0.011686430767
8	3074	0.022	0.007661396143
8	3075	0.022	0.007594078754
8	3076	0.022	0.00357487735
8	3077	0.022	0.003507876904
8	3078	0.022	0.003440876458
8	3079	0.022	0.011618128984
8	3080	0.022	0.007526761365
8	3081	0.022	0.007459443976
8	3082	0.022	0.003373876012
8	3083	0.022	0.003306875566
8	3084	0.022	0.00323987512
8	3085	0.022	0.011549827201
8	3086	0.022	0.007392126587
8	3087	0.022	0.007324809198
8	3088	0.022	0.003172874674
8	3089	0.022	0.003105874228
8	3090	0.022	0.003038873782
8	3091	0.022	0.011481525418
8	3092	0.022	0.007257491809
8	3093	0.022	0.00719017442
8	3094	0.022	0.002971873336
8	3095	0.022	0.00290487289
8	3096	0.022	0.002837872444
8	3207	0.023	0.012413223635
8	3208	0.023	0.012344921852
8	3209	0.023	0.012276620069
8	3210	0.023	0.008122857031
8	3211	0.023	0.008055539642
8	3212	0.023	0.003770871998
8	3213	0.023	0.012208318286
8	3214	0.023	0.007988222253
8	3215	0.023	0.007920904864
8	3216	0.023	0.003703871552
8	3217	0.023	0.003636871106
8	3218	0.023	0.00356987066
8	3219	0.023	0.012140016503
8	3220	0.023	0.007853587475
8	3221	0.023	0.007786270086
8	3222	0.023	0.003502870214
8	3223	0.023	0.003435869768
8	3224	0.023	0.003368869322
8	3225	0.023	0.01207171472
8	3226	0.023	0.007718952697
8	3227	0.023	0.007651635308
8	3228	0.023	0.003301868876
8	3229	0.023	0.00323486843
8	3230	0.023	0.003167867984
8	3231	0.023	0.012003412937
8	3232	0.023	0.007584317919
8	3233	0.023	0.00751700053
8	3234	0.023	0.003100867538
8	3235	0.023	0.003033867092
8	3236	0.023	0.002966866646
8	3349	0.024	0.012935111154
8	3350	0.024	0.012866809371
8	3351	0.024	0.012798507588
8	3352	0.024	0.008449683141
8	3353	0.024	0.008382365752
8	3354	0.024	0.0038998662
8	3355	0.024	0.012730205805
8	3356	0.024	0.008315048363
8	3357	0.024	0.008247730974
8	3358	0.024	0.003832865754
8	3359	0.024	0.003765865308
8	3360	0.024	0.003698864862
8	3361	0.024	0.012661904022
8	3362	0.024	0.008180413585
8	3363	0.024	0.008113096196
8	3364	0.024	0.003631864416
8	3365	0.024	0.00356486397
8	3366	0.024	0.003497863524
8	3367	0.024	0.012593602239
8	3368	0.024	0.008045778807
8	3369	0.024	0.007978461418
8	3370	0.024	0.003430863078
8	3371	0.024	0.003363862632
8	3372	0.024	0.003296862186
8	3373	0.024	0.012525300456
8	3374	0.024	0.007911144029
8	3375	0.024	0.00784382664
8	3376	0.024	0.00322986174
8	3377	0.024	0.003162861294
8	3378	0.024	0.003095860848
8	3491	0.025	0.013456998673
8	3492	0.025	0.01338869689
8	3493	0.025	0.013320395107
8	3494	0.025	0.008776509251
8	3495	0.025	0.008709191862
8	3496	0.025	0.004028860402
8	3497	0.025	0.013252093324
8	3498	0.025	0.008641874473
8	3499	0.025	0.008574557084
8	3500	0.025	0.003961859956
8	3501	0.025	0.00389485951
8	3502	0.025	0.003827859064
8	3503	0.025	0.013183791541
8	3504	0.025	0.008507239695
8	3505	0.025	0.008439922306
8	3506	0.025	0.003760858618
8	3507	0.025	0.003693858172
8	3508	0.025	0.003626857726
8	3509	0.025	0.013115489758
8	3510	0.025	0.008372604917
8	3511	0.025	0.008305287528
8	3512	0.025	0.00355985728
8	3513	0.025	0.003492856834
8	3514	0.025	0.003425856388
8	3515	0.025	0.013047187975
8	3516	0.025	0.008237970139
8	3517	0.025	0.00817065275
8	3518	0.025	0.003358855942
8	3519	0.025	0.003291855496
8	3520	0.025	0.00322485505
8	3631	0.026	0.013978886192
8	3632	0.026	0.013910584409
8	3633	0.026	0.013842282626
8	3634	0.026	0.009103335361
8	3635	0.026	0.009036017972
8	3636	0.026	0.004157854604
8	3637	0.026	0.013773980843
8	3638	0.026	0.008968700583
8	3639	0.026	0.008901383194
8	3640	0.026	0.004090854158
8	3641	0.026	0.004023853712
8	3642	0.026	0.003956853266
8	3643	0.026	0.01370567906
8	3644	0.026	0.008834065805
8	3645	0.026	0.008766748416
8	3646	0.026	0.00388985282
8	3647	0.026	0.003822852374
8	3648	0.026	0.003755851928
8	3649	0.026	0.013637377277
8	3650	0.026	0.008699431027
8	3651	0.026	0.008632113638
8	3652	0.026	0.003688851482
8	3653	0.026	0.003621851036
8	3654	0.026	0.00355485059
8	3655	0.026	0.013569075494
8	3656	0.026	0.008564796249
8	3657	0.026	0.00849747886
8	3658	0.026	0.003487850144
8	3659	0.026	0.003420849698
8	3660	0.026	0.003353849252
8	3771	0.027	0.014500773711
8	3772	0.027	0.014432471928
8	3773	0.027	0.014364170145
8	3774	0.027	0.009430161471
8	3775	0.027	0.009362844082
8	3776	0.027	0.004286848806
8	3777	0.027	0.014295868362
8	3778	0.027	0.009295526693
8	3779	0.027	0.009228209304
8	3780	0.027	0.00421984836
8	3781	0.027	0.004152847914
8	3782	0.027	0.004085847468
8	3783	0.027	0.014227566579
8	3784	0.027	0.009160891915
8	3785	0.027	0.009093574526
8	3786	0.027	0.004018847022
8	3787	0.027	0.003951846576
8	3788	0.027	0.00388484613
8	3789	0.027	0.014159264796
8	3790	0.027	0.009026257137
8	3791	0.027	0.008958939748
8	3792	0.027	0.003817845684
8	3793	0.027	0.003750845238
8	3794	0.027	0.003683844792
8	3795	0.027	0.014090963013
8	3796	0.027	0.008891622359
8	3797	0.027	0.00882430497
8	3798	0.027	0.003616844346
8	3799	0.027	0.0035498439
8	3800	0.027	0.003482843454
8	3909	0.028	0.01502266123
8	3910	0.028	0.014954359447
8	3911	0.028	0.014886057664
8	3912	0.028	0.009756987581
8	3913	0.028	0.009689670192
8	3914	0.028	0.004415843008
8	3915	0.028	0.014817755881
8	3916	0.028	0.009622352803
8	3917	0.028	0.009555035414
8	3918	0.028	0.004348842562
8	3919	0.028	0.004281842116
8	3920	0.028	0.00421484167
8	3921	0.028	0.014749454098
8	3922	0.028	0.009487718025
8	3923	0.028	0.009420400636
8	3924	0.028	0.004147841224
8	3925	0.028	0.004080840778
8	3926	0.028	0.004013840332
8	3927	0.028	0.014681152315
8	3928	0.028	0.009353083247
8	3929	0.028	0.009285765858
8	3930	0.028	0.003946839886
8	3931	0.028	0.00387983944
8	3932	0.028	0.003812838994
8	3933	0.028	0.014612850532
8	3934	0.028	0.009218448469
8	3935	0.028	0.00915113108
8	3936	0.028	0.003745838548
8	3937	0.028	0.003678838102
8	3938	0.028	0.003611837656
8	4051	0.029	0.015544548749
8	4052	0.029	0.015476246966
8	4053	0.029	0.015407945183
8	4054	0.029	0.010083813691
8	4055	0.029	0.010016496302
8	4056	0.029	0.00454483721
8	4057	0.029	0.0153396434
8	4058	0.029	0.009949178913
8	4059	0.029	0.009881861524
8	4060	0.029	0.004477836764
8	4061	0.029	0.004410836318
8	4062	0.029	0.004343835872
8	4063	0.029	0.015271341617
8	4064	0.029	0.009814544135
8	4065	0.029	0.009747226746
8	4066	0.029	0.004276835426
8	4067	0.029	0.00420983498
8	4068	0.029	0.004142834534
8	4069	0.029	0.015203039834
8	4070	0.029	0.009679909357
8	4071	0.029	0.009612591968
8	4072	0.029	0.004075834088
8	4073	0.029	0.004008833642
8	4074	0.029	0.003941833196
8	4075	0.029	0.015134738051
8	4076	0.029	0.009545274579
8	4077	0.029	0.00947795719
8	4078	0.029	0.00387483275
8	4079	0.029	0.003807832304
8	4080	0.029	0.003740831858
8	4193	0.03	0.016066436268
8	4194	0.03	0.015998134485
8	4195	0.03	0.015929832702
8	4196	0.03	0.010410639801
8	4197	0.03	0.010343322412
8	4198	0.03	0.004673831412
8	4199	0.03	0.015861530919
8	4200	0.03	0.010276005023
8	4201	0.03	0.010208687634
8	4202	0.03	0.004606830966
8	4203	0.03	0.00453983052
8	4204	0.03	0.004472830074
8	4205	0.03	0.015793229136
8	4206	0.03	0.010141370245
8	4207	0.03	0.010074052856
8	4208	0.03	0.004405829628
8	4209	0.03	0.004338829182
8	4210	0.03	0.004271828736
8	4211	0.03	0.015724927353
8	4212	0.03	0.010006735467
8	4213	0.03	0.009939418078
8	4214	0.03	0.00420482829
8	4215	0.03	0.004137827844
8	4216	0.03	0.004070827398
8	4217	0.03	0.01565662557
8	4218	0.03	0.009872100689
8	4219	0.03	0.0098047833
8	4220	0.03	0.004003826952
8	4221	0.03	0.003936826506
8	4222	0.03	0.00386982606
8	4333	0.031	0.016588323787
8	4334	0.031	0.016520022004
8	4335	0.031	0.016451720221
8	4336	0.031	0.010737465911
8	4337	0.031	0.010670148522
8	4338	0.031	0.004802825614
8	4339	0.031	0.016383418438
8	4340	0.031	0.010602831133
8	4341	0.031	0.010535513744
8	4342	0.031	0.004735825168
8	4343	0.031	0.004668824722
8	4344	0.031	0.004601824276
8	4345	0.031	0.016315116655
8	4346	0.031	0.010468196355
8	4347	0.031	0.010400878966
8	4348	0.031	0.00453482383
8	4349	0.031	0.004467823384
8	4350	0.031	0.004400822938
8	4351	0.031	0.016246814872
8	4352	0.031	0.010333561577
8	4353	0.031	0.010266244188
8	4354	0.031	0.004333822492
8	4355	0.031	0.004266822046
8	4356	0.031	0.0041998216
8	4357	0.031	0.016178513089
8	4358	0.031	0.010198926799
8	4359	0.031	0.01013160941
8	4360	0.031	0.004132821154
8	4361	0.031	0.004065820708
8	4362	0.031	0.003998820262
8	4475	0.032	0.017110211306
8	4476	0.032	0.017041909523
8	4477	0.032	0.01697360774
8	4478	0.032	0.011064292021
8	4479	0.032	0.010996974632
8	4480	0.032	0.004931819816
8	4481	0.032	0.016905305957
8	4482	0.032	0.010929657243
8	4483	0.032	0.010862339854
8	4484	0.032	0.00486481937
8	4485	0.032	0.004797818924
8	4486	0.032	0.004730818478
8	4487	0.032	0.016837004174
8	4488	0.032	0.010795022465
8	4489	0.032	0.010727705076
8	4490	0.032	0.004663818032
8	4491	0.032	0.004596817586
8	4492	0.032	0.00452981714
8	4493	0.032	0.016768702391
8	4494	0.032	0.010660387687
8	4495	0.032	0.010593070298
8	4496	0.032	0.004462816694
8	4497	0.032	0.004395816248
8	4498	0.032	0.004328815802
8	4499	0.032	0.016700400608
8	4500	0.032	0.010525752909
8	4501	0.032	0.01045843552
8	4502	0.032	0.004261815356
8	4503	0.032	0.00419481491
8	4504	0.032	0.004127814464
8	4617	0.033	0.017632098825
8	4618	0.033	0.017563797042
8	4619	0.033	0.017495495259
8	4620	0.033	0.011391118131
8	4621	0.033	0.011323800742
8	4622	0.033	0.005060814018
8	4623	0.033	0.017427193476
8	4624	0.033	0.011256483353
8	4625	0.033	0.011189165964
8	4626	0.033	0.004993813572
8	4627	0.033	0.004926813126
8	4628	0.033	0.00485981268
8	4629	0.033	0.017358891693
8	4630	0.033	0.011121848575
8	4631	0.033	0.011054531186
8	4632	0.033	0.004792812234
8	4633	0.033	0.004725811788
8	4634	0.033	0.004658811342
8	4635	0.033	0.01729058991
8	4636	0.033	0.010987213797
8	4637	0.033	0.010919896408
8	4638	0.033	0.004591810896
8	4639	0.033	0.00452481045
8	4640	0.033	0.004457810004
8	4641	0.033	0.017222288127
8	4642	0.033	0.010852579019
8	4643	0.033	0.01078526163
8	4644	0.033	0.004390809558
8	4645	0.033	0.004323809112
8	4646	0.033	0.004256808666
8	4757	0.034	0.018153986344
8	4758	0.034	0.018085684561
8	4759	0.034	0.018017382778
8	4760	0.034	0.011717944241
8	4761	0.034	0.011650626852
8	4762	0.034	0.00518980822
8	4763	0.034	0.017949080995
8	4764	0.034	0.011583309463
8	4765	0.034	0.011515992074
8	4766	0.034	0.005122807774
8	4767	0.034	0.005055807328
8	4768	0.034	0.004988806882
8	4769	0.034	0.017880779212
8	4770	0.034	0.011448674685
8	4771	0.034	0.011381357296
8	4772	0.034	0.004921806436
8	4773	0.034	0.00485480599
8	4774	0.034	0.004787805544
8	4775	0.034	0.017812477429
8	4776	0.034	0.011314039907
8	4777	0.034	0.011246722518
8	4778	0.034	0.004720805098
8	4779	0.034	0.004653804652
8	4780	0.034	0.004586804206
8	4781	0.034	0.017744175646
8	4782	0.034	0.011179405129
8	4783	0.034	0.01111208774
8	4784	0.034	0.00451980376
8	4785	0.034	0.004452803314
8	4786	0.034	0.004385802868
8	4897	0.035	0.018675873863
8	4898	0.035	0.01860757208
8	4899	0.035	0.018539270297
8	4900	0.035	0.012044770351
8	4901	0.035	0.011977452962
8	4902	0.035	0.005318802422
8	4903	0.035	0.018470968514
8	4904	0.035	0.011910135573
8	4905	0.035	0.011842818184
8	4906	0.035	0.005251801976
8	4907	0.035	0.00518480153
8	4908	0.035	0.005117801084
8	4909	0.035	0.018402666731
8	4910	0.035	0.011775500795
8	4911	0.035	0.011708183406
8	4912	0.035	0.005050800638
8	4913	0.035	0.004983800192
8	4914	0.035	0.004916799746
8	4915	0.035	0.018334364948
8	4916	0.035	0.011640866017
8	4917	0.035	0.011573548628
8	4918	0.035	0.0048497993
8	4919	0.035	0.004782798854
8	4920	0.035	0.004715798408
8	4921	0.035	0.018266063165
8	4922	0.035	0.011506231239
8	4923	0.035	0.01143891385
8	4924	0.035	0.004648797962
8	4925	0.035	0.004581797516
8	4926	0.035	0.00451479707
8	5039	0.036	0.019197761382
8	5040	0.036	0.019129459599
8	5041	0.036	0.019061157816
8	5042	0.036	0.012371596461
8	5043	0.036	0.012304279072
8	5044	0.036	0.005447796624
8	5045	0.036	0.018992856033
8	5046	0.036	0.012236961683
8	5047	0.036	0.012169644294
8	5048	0.036	0.005380796178
8	5049	0.036	0.005313795732
8	5050	0.036	0.005246795286
8	5051	0.036	0.01892455425
8	5052	0.036	0.012102326905
8	5053	0.036	0.012035009516
8	5054	0.036	0.00517979484
8	5055	0.036	0.005112794394
8	5056	0.036	0.005045793948
8	5057	0.036	0.018856252467
8	5058	0.036	0.011967692127
8	5059	0.036	0.011900374738
8	5060	0.036	0.004978793502
8	5061	0.036	0.004911793056
8	5062	0.036	0.00484479261
8	5063	0.036	0.018787950684
8	5064	0.036	0.011833057349
8	5065	0.036	0.01176573996
8	5066	0.036	0.004777792164
8	5067	0.036	0.004710791718
8	5068	0.036	0.004643791272
8	5179	0.037	0.019719648901
8	5180	0.037	0.019651347118
8	5181	0.037	0.019583045335
8	5182	0.037	0.012698422571
8	5183	0.037	0.012631105182
8	5184	0.037	0.005576790826
8	5185	0.037	0.019514743552
8	5186	0.037	0.012563787793
8	5187	0.037	0.012496470404
8	5188	0.037	0.00550979038
8	5189	0.037	0.005442789934
8	5190	0.037	0.005375789488
8	5191	0.037	0.019446441769
8	5192	0.037	0.012429153015
8	5193	0.037	0.012361835626
8	5194	0.037	0.005308789042
8	5195	0.037	0.005241788596
8	5196	0.037	0.00517478815
8	5197	0.037	0.019378139986
8	5198	0.037	0.012294518237
8	5199	0.037	0.012227200848
8	5200	0.037	0.005107787704
8	5201	0.037	0.005040787258
8	5202	0.037	0.004973786812
8	5203	0.037	0.019309838203
8	5204	0.037	0.012159883459
8	5205	0.037	0.01209256607
8	5206	0.037	0.004906786366
8	5207	0.037	0.00483978592
8	5208	0.037	0.004772785474
8	5321	0.038	0.02024153642
8	5322	0.038	0.020173234637
8	5323	0.038	0.020104932854
8	5324	0.038	0.013025248681
8	5325	0.038	0.012957931292
8	5326	0.038	0.005705785028
8	5327	0.038	0.020036631071
8	5328	0.038	0.012890613903
8	5329	0.038	0.012823296514
8	5330	0.038	0.005638784582
8	5331	0.038	0.005571784136
8	5332	0.038	0.00550478369
8	5333	0.038	0.019968329288
8	5334	0.038	0.012755979125
8	5335	0.038	0.012688661736
8	5336	0.038	0.005437783244
8	5337	0.038	0.005370782798
8	5338	0.038	0.005303782352
8	5339	0.038	0.019900027505
8	5340	0.038	0.012621344347
8	5341	0.038	0.012554026958
8	5342	0.038	0.005236781906
8	5343	0.038	0.00516978146
8	5344	0.038	0.005102781014
8	5345	0.038	0.019831725722
8	5346	0.038	0.012486709569
8	5347	0.038	0.01241939218
8	5348	0.038	0.005035780568
8	5349	0.038	0.004968780122
8	5350	0.038	0.004901779676
8	5461	0.039	0.020763423939
8	5462	0.039	0.020695122156
8	5463	0.039	0.020626820373
8	5464	0.039	0.013352074791
8	5465	0.039	0.013284757402
8	5466	0.039	0.00583477923
8	5467	0.039	0.02055851859
8	5468	0.039	0.013217440013
8	5469	0.039	0.013150122624
8	5470	0.039	0.005767778784
8	5471	0.039	0.005700778338
8	5472	0.039	0.005633777892
8	5473	0.039	0.020490216807
8	5474	0.039	0.013082805235
8	5475	0.039	0.013015487846
8	5476	0.039	0.005566777446
8	5477	0.039	0.005499777
8	5478	0.039	0.005432776554
8	5479	0.039	0.020421915024
8	5480	0.039	0.012948170457
8	5481	0.039	0.012880853068
8	5482	0.039	0.005365776108
8	5483	0.039	0.005298775662
8	5484	0.039	0.005231775216
8	5485	0.039	0.020353613241
8	5486	0.039	0.012813535679
8	5487	0.039	0.01274621829
8	5488	0.039	0.00516477477
8	5489	0.039	0.005097774324
8	5490	0.039	0.005030773878
8	5603	0.04	0.021285311458
8	5604	0.04	0.021217009675
8	5605	0.04	0.021148707892
8	5606	0.04	0.013678900901
8	5607	0.04	0.013611583512
8	5608	0.04	0.005963773432
8	5609	0.04	0.021080406109
8	5610	0.04	0.013544266123
8	5611	0.04	0.013476948734
8	5612	0.04	0.005896772986
8	5613	0.04	0.00582977254
8	5614	0.04	0.005762772094
8	5615	0.04	0.021012104326
8	5616	0.04	0.013409631345
8	5617	0.04	0.013342313956
8	5618	0.04	0.005695771648
8	5619	0.04	0.005628771202
8	5620	0.04	0.005561770756
8	5621	0.04	0.020943802543
8	5622	0.04	0.013274996567
8	5623	0.04	0.013207679178
8	5624	0.04	0.00549477031
8	5625	0.04	0.005427769864
8	5626	0.04	0.005360769418
8	5627	0.04	0.02087550076
8	5628	0.04	0.013140361789
8	5629	0.04	0.0130730444
8	5630	0.04	0.005293768972
8	5631	0.04	0.005226768526
8	5632	0.04	0.00515976808
8	5743	0.041	0.021807198977
8	5744	0.041	0.021738897194
8	5745	0.041	0.021670595411
8	5746	0.041	0.014005727011
8	5747	0.041	0.013938409622
8	5748	0.041	0.006092767634
8	5749	0.041	0.021602293628
8	5750	0.041	0.013871092233
8	5751	0.041	0.013803774844
8	5752	0.041	0.006025767188
8	5753	0.041	0.005958766742
8	5754	0.041	0.005891766296
8	5755	0.041	0.021533991845
8	5756	0.041	0.013736457455
8	5757	0.041	0.013669140066
8	5758	0.041	0.00582476585
8	5759	0.041	0.005757765404
8	5760	0.041	0.005690764958
8	5761	0.041	0.021465690062
8	5762	0.041	0.013601822677
8	5763	0.041	0.013534505288
8	5764	0.041	0.005623764512
8	5765	0.041	0.005556764066
8	5766	0.041	0.00548976362
8	5767	0.041	0.021397388279
8	5768	0.041	0.013467187899
8	5769	0.041	0.01339987051
8	5770	0.041	0.005422763174
8	5771	0.041	0.005355762728
8	5772	0.041	0.005288762282
8	5881	0.042	0.022329086496
8	5882	0.042	0.022260784713
8	5883	0.042	0.02219248293
8	5884	0.042	0.014332553121
8	5885	0.042	0.014265235732
8	5886	0.042	0.006221761836
8	5887	0.042	0.022124181147
8	5888	0.042	0.014197918343
8	5889	0.042	0.014130600954
8	5890	0.042	0.00615476139
8	5891	0.042	0.006087760944
8	5892	0.042	0.006020760498
8	5893	0.042	0.022055879364
8	5894	0.042	0.014063283565
8	5895	0.042	0.013995966176
8	5896	0.042	0.005953760052
8	5897	0.042	0.005886759606
8	5898	0.042	0.00581975916
8	5899	0.042	0.021987577581
8	5900	0.042	0.013928648787
8	5901	0.042	0.013861331398
8	5902	0.042	0.005752758714
8	5903	0.042	0.005685758268
8	5904	0.042	0.005618757822
8	5905	0.042	0.021919275798
8	5906	0.042	0.013794014009
8	5907	0.042	0.01372669662
8	5908	0.042	0.005551757376
8	5909	0.042	0.00548475693
8	5910	0.042	0.005417756484
8	6023	0.043	0.022850974015
8	6024	0.043	0.022782672232
8	6025	0.043	0.022714370449
8	6026	0.043	0.014659379231
8	6027	0.043	0.014592061842
8	6028	0.043	0.006350756038
8	6029	0.043	0.022646068666
8	6030	0.043	0.014524744453
8	6031	0.043	0.014457427064
8	6032	0.043	0.006283755592
8	6033	0.043	0.006216755146
8	6034	0.043	0.0061497547
8	6035	0.043	0.022577766883
8	6036	0.043	0.014390109675
8	6037	0.043	0.014322792286
8	6038	0.043	0.006082754254
8	6039	0.043	0.006015753808
8	6040	0.043	0.005948753362
8	6041	0.043	0.0225094651
8	6042	0.043	0.014255474897
8	6043	0.043	0.014188157508
8	6044	0.043	0.005881752916
8	6045	0.043	0.00581475247
8	6046	0.043	0.005747752024
8	6047	0.043	0.022441163317
8	6048	0.043	0.014120840119
8	6049	0.043	0.01405352273
8	6050	0.043	0.005680751578
8	6051	0.043	0.005613751132
8	6052	0.043	0.005546750686
8	6165	0.044	0.023372861534
8	6166	0.044	0.023304559751
8	6167	0.044	0.023236257968
8	6168	0.044	0.014986205341
8	6169	0.044	0.014918887952
8	6170	0.044	0.00647975024
8	6171	0.044	0.023167956185
8	6172	0.044	0.014851570563
8	6173	0.044	0.014784253174
8	6174	0.044	0.006412749794
8	6175	0.044	0.006345749348
8	6176	0.044	0.006278748902
8	6177	0.044	0.023099654402
8	6178	0.044	0.014716935785
8	6179	0.044	0.014649618396
8	6180	0.044	0.006211748456
8	6181	0.044	0.00614474801
8	6182	0.044	0.006077747564
8	6183	0.044	0.023031352619
8	6184	0.044	0.014582301007
8	6185	0.044	0.014514983618
8	6186	0.044	0.006010747118
8	6187	0.044	0.005943746672
8	6188	0.044	0.005876746226
8	6189	0.044	0.022963050836
8	6190	0.044	0.014447666229
8	6191	0.044	0.01438034884
8	6192	0.044	0.00580974578
8	6193	0.044	0.005742745334
8	6194	0.044	0.005675744888
8	6305	0.045	0.023894749053
8	6306	0.045	0.02382644727
8	6307	0.045	0.023758145487
8	6308	0.045	0.015313031451
8	6309	0.045	0.015245714062
8	6310	0.045	0.006608744442
8	6311	0.045	0.023689843704
8	6312	0.045	0.015178396673
8	6313	0.045	0.015111079284
8	6314	0.045	0.006541743996
8	6315	0.045	0.00647474355
8	6316	0.045	0.006407743104
8	6317	0.045	0.023621541921
8	6318	0.045	0.015043761895
8	6319	0.045	0.014976444506
8	6320	0.045	0.006340742658
8	6321	0.045	0.006273742212
8	6322	0.045	0.006206741766
8	6323	0.045	0.023553240138
8	6324	0.045	0.014909127117
8	6325	0.045	0.014841809728
8	6326	0.045	0.00613974132
8	6327	0.045	0.006072740874
8	6328	0.045	0.006005740428
8	6329	0.045	0.023484938355
8	6330	0.045	0.014774492339
8	6331	0.045	0.01470717495
8	6332	0.045	0.005938739982
8	6333	0.045	0.005871739536
8	6334	0.045	0.00580473909
8	6447	0.046	0.024416636572
8	6448	0.046	0.024348334789
8	6449	0.046	0.024280033006
8	6450	0.046	0.015639857561
8	6451	0.046	0.015572540172
8	6452	0.046	0.006737738644
8	6453	0.046	0.024211731223
8	6454	0.046	0.015505222783
8	6455	0.046	0.015437905394
8	6456	0.046	0.006670738198
8	6457	0.046	0.006603737752
8	6458	0.046	0.006536737306
8	6459	0.046	0.02414342944
8	6460	0.046	0.015370588005
8	6461	0.046	0.015303270616
8	6462	0.046	0.00646973686
8	6463	0.046	0.006402736414
8	6464	0.046	0.006335735968
8	6465	0.046	0.024075127657
8	6466	0.046	0.015235953227
8	6467	0.046	0.015168635838
8	6468	0.046	0.006268735522
8	6469	0.046	0.006201735076
8	6470	0.046	0.00613473463
8	6471	0.046	0.024006825874
8	6472	0.046	0.015101318449
8	6473	0.046	0.01503400106
8	6474	0.046	0.006067734184
8	6475	0.046	0.006000733738
8	6476	0.046	0.005933733292
8	6589	0.047	0.024938524091
8	6590	0.047	0.024870222308
8	6591	0.047	0.024801920525
8	6592	0.047	0.015966683671
8	6593	0.047	0.015899366282
8	6594	0.047	0.006866732846
8	6595	0.047	0.024733618742
8	6596	0.047	0.015832048893
8	6597	0.047	0.015764731504
8	6598	0.047	0.0067997324
8	6599	0.047	0.006732731954
8	6600	0.047	0.006665731508
8	6601	0.047	0.024665316959
8	6602	0.047	0.015697414115
8	6603	0.047	0.015630096726
8	6604	0.047	0.006598731062
8	6605	0.047	0.006531730616
8	6606	0.047	0.00646473017
8	6607	0.047	0.024597015176
8	6608	0.047	0.015562779337
8	6609	0.047	0.015495461948
8	6610	0.047	0.006397729724
8	6611	0.047	0.006330729278
8	6612	0.047	0.006263728832
8	6613	0.047	0.024528713393
8	6614	0.047	0.015428144559
8	6615	0.047	0.01536082717
8	6616	0.047	0.006196728386
8	6617	0.047	0.00612972794
8	6618	0.047	0.006062727494
8	6729	0.048	0.02546041161
8	6730	0.048	0.025392109827
8	6731	0.048	0.025323808044
8	6732	0.048	0.016293509781
8	6733	0.048	0.016226192392
8	6734	0.048	0.006995727048
8	6735	0.048	0.025255506261
8	6736	0.048	0.016158875003
8	6737	0.048	0.016091557614
8	6738	0.048	0.006928726602
8	6739	0.048	0.006861726156
8	6740	0.048	0.00679472571
8	6741	0.048	0.025187204478
8	6742	0.048	0.016024240225
8	6743	0.048	0.015956922836
8	6744	0.048	0.006727725264
8	6745	0.048	0.006660724818
8	6746	0.048	0.006593724372
8	6747	0.048	0.025118902695
8	6748	0.048	0.015889605447
8	6749	0.048	0.015822288058
8	6750	0.048	0.006526723926
8	6751	0.048	0.00645972348
8	6752	0.048	0.006392723034
8	6753	0.048	0.025050600912
8	6754	0.048	0.015754970669
8	6755	0.048	0.01568765328
8	6756	0.048	0.006325722588
8	6757	0.048	0.006258722142
8	6758	0.048	0.006191721696
8	6869	0.049	0.025982299129
8	6870	0.049	0.025913997346
8	6871	0.049	0.025845695563
8	6872	0.049	0.016620335891
8	6873	0.049	0.016553018502
8	6874	0.049	0.00712472125
8	6875	0.049	0.02577739378
8	6876	0.049	0.016485701113
8	6877	0.049	0.016418383724
8	6878	0.049	0.007057720804
8	6879	0.049	0.006990720358
8	6880	0.049	0.006923719912
8	6881	0.049	0.025709091997
8	6882	0.049	0.016351066335
8	6883	0.049	0.016283748946
8	6884	0.049	0.006856719466
8	6885	0.049	0.00678971902
8	6886	0.049	0.006722718574
8	6887	0.049	0.025640790214
8	6888	0.049	0.016216431557
8	6889	0.049	0.016149114168
8	6890	0.049	0.006655718128
8	6891	0.049	0.006588717682
8	6892	0.049	0.006521717236
8	6893	0.049	0.025572488431
8	6894	0.049	0.016081796779
8	6895	0.049	0.01601447939
8	6896	0.049	0.00645471679
8	6897	0.049	0.006387716344
8	6898	0.049	0.006320715898
8	7011	0.05	0.026504186648
8	7012	0.05	0.026435884865
8	7013	0.05	0.026367583082
8	7014	0.05	0.016947162001
8	7015	0.05	0.016879844612
8	7016	0.05	0.007253715452
8	7017	0.05	0.026299281299
8	7018	0.05	0.016812527223
8	7019	0.05	0.016745209834
8	7020	0.05	0.007186715006
8	7021	0.05	0.00711971456
8	7022	0.05	0.007052714114
8	7023	0.05	0.026230979516
8	7024	0.05	0.016677892445
8	7025	0.05	0.016610575056
8	7026	0.05	0.006985713668
8	7027	0.05	0.006918713222
8	7028	0.05	0.006851712776
8	7029	0.05	0.026162677733
8	7030	0.05	0.016543257667
8	7031	0.05	0.016475940278
8	7032	0.05	0.00678471233
8	7033	0.05	0.006717711884
8	7034	0.05	0.006650711438
8	7035	0.05	0.02609437595
8	7036	0.05	0.016408622889
8	7037	0.05	0.0163413055
8	7038	0.05	0.006583710992
8	7039	0.05	0.006516710546
8	7040	0.05	0.0064497101
8	7151	0.051	0.027026074167
8	7152	0.051	0.026957772384
8	7153	0.051	0.026889470601
8	7154	0.051	0.017273988111
8	7155	0.051	0.017206670722
8	7156	0.051	0.007382709654
8	7157	0.051	0.026821168818
8	7158	0.051	0.017139353333
8	7159	0.051	0.017072035944
8	7160	0.051	0.007315709208
8	7161	0.051	0.007248708762
8	7162	0.051	0.007181708316
8	7163	0.051	0.026752867035
8	7164	0.051	0.017004718555
8	7165	0.051	0.016937401166
8	7166	0.051	0.00711470787
8	7167	0.051	0.007047707424
8	7168	0.051	0.006980706978
8	7169	0.051	0.026684565252
8	7170	0.051	0.016870083777
8	7171	0.051	0.016802766388
8	7172	0.051	0.006913706532
8	7173	0.051	0.006846706086
8	7174	0.051	0.00677970564
8	7175	0.051	0.026616263469
8	7176	0.051	0.016735448999
8	7177	0.051	0.01666813161
8	7178	0.051	0.006712705194
8	7179	0.051	0.006645704748
8	7180	0.051	0.006578704302
8	7293	0.052	0.027547961686
8	7294	0.052	0.027479659903
8	7295	0.052	0.02741135812
8	7296	0.052	0.017600814221
8	7297	0.052	0.017533496832
8	7298	0.052	0.007511703856
8	7299	0.052	0.027343056337
8	7300	0.052	0.017466179443
8	7301	0.052	0.017398862054
8	7302	0.052	0.00744470341
8	7303	0.052	0.007377702964
8	7304	0.052	0.007310702518
8	7305	0.052	0.027274754554
8	7306	0.052	0.017331544665
8	7307	0.052	0.017264227276
8	7308	0.052	0.007243702072
8	7309	0.052	0.007176701626
8	7310	0.052	0.00710970118
8	7311	0.052	0.027206452771
8	7312	0.052	0.017196909887
8	7313	0.052	0.017129592498
8	7314	0.052	0.007042700734
8	7315	0.052	0.006975700288
8	7316	0.052	0.006908699842
8	7317	0.052	0.027138150988
8	7318	0.052	0.017062275109
8	7319	0.052	0.01699495772
8	7320	0.052	0.006841699396
8	7321	0.052	0.00677469895
8	7322	0.052	0.006707698504
8	7433	0.053	0.028069849205
8	7434	0.053	0.028001547422
8	7435	0.053	0.027933245639
8	7436	0.053	0.017927640331
8	7437	0.053	0.017860322942
8	7438	0.053	0.007640698058
8	7439	0.053	0.027864943856
8	7440	0.053	0.017793005553
8	7441	0.053	0.017725688164
8	7442	0.053	0.007573697612
8	7443	0.053	0.007506697166
8	7444	0.053	0.00743969672
8	7445	0.053	0.027796642073
8	7446	0.053	0.017658370775
8	7447	0.053	0.017591053386
8	7448	0.053	0.007372696274
8	7449	0.053	0.007305695828
8	7450	0.053	0.007238695382
8	7451	0.053	0.02772834029
8	7452	0.053	0.017523735997
8	7453	0.053	0.017456418608
8	7454	0.053	0.007171694936
8	7455	0.053	0.00710469449
8	7456	0.053	0.007037694044
8	7457	0.053	0.027660038507
8	7458	0.053	0.017389101219
8	7459	0.053	0.01732178383
8	7460	0.053	0.006970693598
8	7461	0.053	0.006903693152
8	7462	0.053	0.006836692706
8	7573	0.054	0.028591736724
8	7574	0.054	0.028523434941
8	7575	0.054	0.028455133158
8	7576	0.054	0.018254466441
8	7577	0.054	0.018187149052
8	7578	0.054	0.00776969226
8	7579	0.054	0.028386831375
8	7580	0.054	0.018119831663
8	7581	0.054	0.018052514274
8	7582	0.054	0.007702691814
8	7583	0.054	0.007635691368
8	7584	0.054	0.007568690922
8	7585	0.054	0.028318529592
8	7586	0.054	0.017985196885
8	7587	0.054	0.017917879496
8	7588	0.054	0.007501690476
8	7589	0.054	0.00743469003
8	7590	0.054	0.007367689584
8	7591	0.054	0.028250227809
8	7592	0.054	0.017850562107
8	7593	0.054	0.017783244718
8	7594	0.054	0.007300689138
8	7595	0.054	0.007233688692
8	7596	0.054	0.007166688246
8	7597	0.054	0.028181926026
8	7598	0.054	0.017715927329
8	7599	0.054	0.01764860994
8	7600	0.054	0.0070996878
8	7601	0.054	0.007032687354
8	7602	0.054	0.006965686908
8	7715	0.055	0.029113624243
8	7716	0.055	0.02904532246
8	7717	0.055	0.028977020677
8	7718	0.055	0.018581292551
8	7719	0.055	0.018513975162
8	7720	0.055	0.007898686462
8	7721	0.055	0.028908718894
8	7722	0.055	0.018446657773
8	7723	0.055	0.018379340384
8	7724	0.055	0.007831686016
8	7725	0.055	0.00776468557
8	7726	0.055	0.007697685124
8	7727	0.055	0.028840417111
8	7728	0.055	0.018312022995
8	7729	0.055	0.018244705606
8	7730	0.055	0.007630684678
8	7731	0.055	0.007563684232
8	7732	0.055	0.007496683786
8	7733	0.055	0.028772115328
8	7734	0.055	0.018177388217
8	7735	0.055	0.018110070828
8	7736	0.055	0.00742968334
8	7737	0.055	0.007362682894
8	7738	0.055	0.007295682448
8	7739	0.055	0.028703813545
8	7740	0.055	0.018042753439
8	7741	0.055	0.01797543605
8	7742	0.055	0.007228682002
8	7743	0.055	0.007161681556
8	7744	0.055	0.00709468111
8	7853	0.056	0.029635511762
8	7854	0.056	0.029567209979
8	7855	0.056	0.029498908196
8	7856	0.056	0.018908118661
8	7857	0.056	0.018840801272
8	7858	0.056	0.008027680664
8	7859	0.056	0.029430606413
8	7860	0.056	0.018773483883
8	7861	0.056	0.018706166494
8	7862	0.056	0.007960680218
8	7863	0.056	0.007893679772
8	7864	0.056	0.007826679326
8	7865	0.056	0.02936230463
8	7866	0.056	0.018638849105
8	7867	0.056	0.018571531716
8	7868	0.056	0.00775967888
8	7869	0.056	0.007692678434
8	7870	0.056	0.007625677988
8	7871	0.056	0.029294002847
8	7872	0.056	0.018504214327
8	7873	0.056	0.018436896938
8	7874	0.056	0.007558677542
8	7875	0.056	0.007491677096
8	7876	0.056	0.00742467665
8	7877	0.056	0.029225701064
8	7878	0.056	0.018369579549
8	7879	0.056	0.01830226216
8	7880	0.056	0.007357676204
8	7881	0.056	0.007290675758
8	7882	0.056	0.007223675312
8	7995	0.057	0.030157399281
8	7996	0.057	0.030089097498
8	7997	0.057	0.030020795715
8	7998	0.057	0.019234944771
8	7999	0.057	0.019167627382
8	8000	0.057	0.008156674866
8	8001	0.057	0.029952493932
8	8002	0.057	0.019100309993
8	8003	0.057	0.019032992604
8	8004	0.057	0.00808967442
8	8005	0.057	0.008022673974
8	8006	0.057	0.007955673528
8	8007	0.057	0.029884192149
8	8008	0.057	0.018965675215
8	8009	0.057	0.018898357826
8	8010	0.057	0.007888673082
8	8011	0.057	0.007821672636
8	8012	0.057	0.00775467219
8	8013	0.057	0.029815890366
8	8014	0.057	0.018831040437
8	8015	0.057	0.018763723048
8	8016	0.057	0.007687671744
8	8017	0.057	0.007620671298
8	8018	0.057	0.007553670852
8	8019	0.057	0.029747588583
8	8020	0.057	0.018696405659
8	8021	0.057	0.01862908827
8	8022	0.057	0.007486670406
8	8023	0.057	0.00741966996
8	8024	0.057	0.007352669514
8	8137	0.058	0.0306792868
8	8138	0.058	0.030610985017
8	8139	0.058	0.030542683234
8	8140	0.058	0.019561770881
8	8141	0.058	0.019494453492
8	8142	0.058	0.008285669068
8	8143	0.058	0.030474381451
8	8144	0.058	0.019427136103
8	8145	0.058	0.019359818714
8	8146	0.058	0.008218668622
8	8147	0.058	0.008151668176
8	8148	0.058	0.00808466773
8	8149	0.058	0.030406079668
8	8150	0.058	0.019292501325
8	8151	0.058	0.019225183936
8	8152	0.058	0.008017667284
8	8153	0.058	0.007950666838
8	8154	0.058	0.007883666392
8	8155	0.058	0.030337777885
8	8156	0.058	0.019157866547
8	8157	0.058	0.019090549158
8	8158	0.058	0.007816665946
8	8159	0.058	0.0077496655
8	8160	0.058	0.007682665054
8	8161	0.058	0.030269476102
8	8162	0.058	0.019023231769
8	8163	0.058	0.01895591438
8	8164	0.058	0.007615664608
8	8165	0.058	0.007548664162
8	8166	0.058	0.007481663716
8	8277	0.059	0.031201174319
8	8278	0.059	0.031132872536
8	8279	0.059	0.031064570753
8	8280	0.059	0.019888596991
8	8281	0.059	0.019821279602
8	8282	0.059	0.00841466327
8	8283	0.059	0.03099626897
8	8284	0.059	0.019753962213
8	8285	0.059	0.019686644824
8	8286	0.059	0.008347662824
8	8287	0.059	0.008280662378
8	8288	0.059	0.008213661932
8	8289	0.059	0.030927967187
8	8290	0.059	0.019619327435
8	8291	0.059	0.019552010046
8	8292	0.059	0.008146661486
8	8293	0.059	0.00807966104
8	8294	0.059	0.008012660594
8	8295	0.059	0.030859665404
8	8296	0.059	0.019484692657
8	8297	0.059	0.019417375268
8	8298	0.059	0.007945660148
8	8299	0.059	0.007878659702
8	8300	0.059	0.007811659256
8	8301	0.059	0.030791363621
8	8302	0.059	0.019350057879
8	8303	0.059	0.01928274049
8	8304	0.059	0.00774465881
8	8305	0.059	0.007677658364
8	8306	0.059	0.007610657918
8	8419	0.06	0.031723061838
8	8420	0.06	0.031654760055
8	8421	0.06	0.031586458272
8	8422	0.06	0.020215423101
8	8423	0.06	0.020148105712
8	8424	0.06	0.008543657472
8	8425	0.06	0.031518156489
8	8426	0.06	0.020080788323
8	8427	0.06	0.020013470934
8	8428	0.06	0.008476657026
8	8429	0.06	0.00840965658
8	8430	0.06	0.008342656134
8	8431	0.06	0.031449854706
8	8432	0.06	0.019946153545
8	8433	0.06	0.019878836156
8	8434	0.06	0.008275655688
8	8435	0.06	0.008208655242
8	8436	0.06	0.008141654796
8	8437	0.06	0.031381552923
8	8438	0.06	0.019811518767
8	8439	0.06	0.019744201378
8	8440	0.06	0.00807465435
8	8441	0.06	0.008007653904
8	8442	0.06	0.007940653458
8	8443	0.06	0.03131325114
8	8444	0.06	0.019676883989
8	8445	0.06	0.0196095666
8	8446	0.06	0.007873653012
8	8447	0.06	0.007806652566
8	8448	0.06	0.00773965212
8	8561	0.061	0.032244949357
8	8562	0.061	0.032176647574
8	8563	0.061	0.032108345791
8	8564	0.061	0.020542249211
8	8565	0.061	0.020474931822
8	8566	0.061	0.008672651674
8	8567	0.061	0.032040044008
8	8568	0.061	0.020407614433
8	8569	0.061	0.020340297044
8	8570	0.061	0.008605651228
8	8571	0.061	0.008538650782
8	8572	0.061	0.008471650336
8	8573	0.061	0.031971742225
8	8574	0.061	0.020272979655
8	8575	0.061	0.020205662266
8	8576	0.061	0.00840464989
8	8577	0.061	0.008337649444
8	8578	0.061	0.008270648998
8	8579	0.061	0.031903440442
8	8580	0.061	0.020138344877
8	8581	0.061	0.020071027488
8	8582	0.061	0.008203648552
8	8583	0.061	0.008136648106
8	8584	0.061	0.00806964766
8	8585	0.061	0.031835138659
8	8586	0.061	0.020003710099
8	8587	0.061	0.01993639271
8	8588	0.061	0.008002647214
8	8589	0.061	0.007935646768
8	8590	0.061	0.007868646322
8	8701	0.062	0.032766836876
8	8702	0.062	0.032698535093
8	8703	0.062	0.03263023331
8	8704	0.062	0.020869075321
8	8705	0.062	0.020801757932
8	8706	0.062	0.008801645876
8	8707	0.062	0.032561931527
8	8708	0.062	0.020734440543
8	8709	0.062	0.020667123154
8	8710	0.062	0.00873464543
8	8711	0.062	0.008667644984
8	8712	0.062	0.008600644538
8	8713	0.062	0.032493629744
8	8714	0.062	0.020599805765
8	8715	0.062	0.020532488376
8	8716	0.062	0.008533644092
8	8717	0.062	0.008466643646
8	8718	0.062	0.0083996432
8	8719	0.062	0.032425327961
8	8720	0.062	0.020465170987
8	8721	0.062	0.020397853598
8	8722	0.062	0.008332642754
8	8723	0.062	0.008265642308
8	8724	0.062	0.008198641862
8	8725	0.062	0.032357026178
8	8726	0.062	0.020330536209
8	8727	0.062	0.02026321882
8	8728	0.062	0.008131641416
8	8729	0.062	0.00806464097
8	8730	0.062	0.007997640524
8	8841	0.063	0.033288724395
8	8842	0.063	0.033220422612
8	8843	0.063	0.033152120829
8	8844	0.063	0.021195901431
8	8845	0.063	0.021128584042
8	8846	0.063	0.008930640078
8	8847	0.063	0.033083819046
8	8848	0.063	0.021061266653
8	8849	0.063	0.020993949264
8	8850	0.063	0.008863639632
8	8851	0.063	0.008796639186
8	8852	0.063	0.00872963874
8	8853	0.063	0.033015517263
8	8854	0.063	0.020926631875
8	8855	0.063	0.020859314486
8	8856	0.063	0.008662638294
8	8857	0.063	0.008595637848
8	8858	0.063	0.008528637402
8	8859	0.063	0.03294721548
8	8860	0.063	0.020791997097
8	8861	0.063	0.020724679708
8	8862	0.063	0.008461636956
8	8863	0.063	0.00839463651
8	8864	0.063	0.008327636064
8	8865	0.063	0.032878913697
8	8866	0.063	0.020657362319
8	8867	0.063	0.02059004493
8	8868	0.063	0.008260635618
8	8869	0.063	0.008193635172
8	8870	0.063	0.008126634726
8	8983	0.064	0.033810611914
8	8984	0.064	0.033742310131
8	8985	0.064	0.033674008348
8	8986	0.064	0.021522727541
8	8987	0.064	0.021455410152
8	8988	0.064	0.00905963428
8	8989	0.064	0.033605706565
8	8990	0.064	0.021388092763
8	8991	0.064	0.021320775374
8	8992	0.064	0.008992633834
8	8993	0.064	0.008925633388
8	8994	0.064	0.008858632942
8	8995	0.064	0.033537404782
8	8996	0.064	0.021253457985
8	8997	0.064	0.021186140596
8	8998	0.064	0.008791632496
8	8999	0.064	0.00872463205
8	9000	0.064	0.008657631604
8	9001	0.064	0.033469102999
8	9002	0.064	0.021118823207
8	9003	0.064	0.021051505818
8	9004	0.064	0.008590631158
8	9005	0.064	0.008523630712
8	9006	0.064	0.008456630266
8	9007	0.064	0.033400801216
8	9008	0.064	0.020984188429
8	9009	0.064	0.02091687104
8	9010	0.064	0.00838962982
8	9011	0.064	0.008322629374
8	9012	0.064	0.008255628928
8	9123	0.065	0.034332499433
8	9124	0.065	0.03426419765
8	9125	0.065	0.034195895867
8	9126	0.065	0.021849553651
8	9127	0.065	0.021782236262
8	9128	0.065	0.009188628482
8	9129	0.065	0.034127594084
8	9130	0.065	0.021714918873
8	9131	0.065	0.021647601484
8	9132	0.065	0.009121628036
8	9133	0.065	0.00905462759
8	9134	0.065	0.008987627144
8	9135	0.065	0.034059292301
8	9136	0.065	0.021580284095
8	9137	0.065	0.021512966706
8	9138	0.065	0.008920626698
8	9139	0.065	0.008853626252
8	9140	0.065	0.008786625806
8	9141	0.065	0.033990990518
8	9142	0.065	0.021445649317
8	9143	0.065	0.021378331928
8	9144	0.065	0.00871962536
8	9145	0.065	0.008652624914
8	9146	0.065	0.008585624468
8	9147	0.065	0.033922688735
8	9148	0.065	0.021311014539
8	9149	0.065	0.02124369715
8	9150	0.065	0.008518624022
8	9151	0.065	0.008451623576
8	9152	0.065	0.00838462313
8	9265	0.066	0.034854386952
8	9266	0.066	0.034786085169
8	9267	0.066	0.034717783386
8	9268	0.066	0.022176379761
8	9269	0.066	0.022109062372
8	9270	0.066	0.009317622684
8	9271	0.066	0.034649481603
8	9272	0.066	0.022041744983
8	9273	0.066	0.021974427594
8	9274	0.066	0.009250622238
8	9275	0.066	0.009183621792
8	9276	0.066	0.009116621346
8	9277	0.066	0.03458117982
8	9278	0.066	0.021907110205
8	9279	0.066	0.021839792816
8	9280	0.066	0.0090496209
8	9281	0.066	0.008982620454
8	9282	0.066	0.008915620008
8	9283	0.066	0.034512878037
8	9284	0.066	0.021772475427
8	9285	0.066	0.021705158038
8	9286	0.066	0.008848619562
8	9287	0.066	0.008781619116
8	9288	0.066	0.00871461867
8	9289	0.066	0.034444576254
8	9290	0.066	0.021637840649
8	9291	0.066	0.02157052326
8	9292	0.066	0.008647618224
8	9293	0.066	0.008580617778
8	9294	0.066	0.008513617332
8	9403	0.067	0.035376274471
8	9404	0.067	0.035307972688
8	9405	0.067	0.035239670905
8	9406	0.067	0.022503205871
8	9407	0.067	0.022435888482
8	9408	0.067	0.009446616886
8	9409	0.067	0.035171369122
8	9410	0.067	0.022368571093
8	9411	0.067	0.022301253704
8	9412	0.067	0.00937961644
8	9413	0.067	0.009312615994
8	9414	0.067	0.009245615548
8	9415	0.067	0.035103067339
8	9416	0.067	0.022233936315
8	9417	0.067	0.022166618926
8	9418	0.067	0.009178615102
8	9419	0.067	0.009111614656
8	9420	0.067	0.00904461421
8	9421	0.067	0.035034765556
8	9422	0.067	0.022099301537
8	9423	0.067	0.022031984148
8	9424	0.067	0.008977613764
8	9425	0.067	0.008910613318
8	9426	0.067	0.008843612872
8	9427	0.067	0.034966463773
8	9428	0.067	0.021964666759
8	9429	0.067	0.02189734937
8	9430	0.067	0.008776612426
8	9431	0.067	0.00870961198
8	9432	0.067	0.008642611534
8	9545	0.068	0.03589816199
8	9546	0.068	0.035829860207
8	9547	0.068	0.035761558424
8	9548	0.068	0.022830031981
8	9549	0.068	0.022762714592
8	9550	0.068	0.009575611088
8	9551	0.068	0.035693256641
8	9552	0.068	0.022695397203
8	9553	0.068	0.022628079814
8	9554	0.068	0.009508610642
8	9555	0.068	0.009441610196
8	9556	0.068	0.00937460975
8	9557	0.068	0.035624954858
8	9558	0.068	0.022560762425
8	9559	0.068	0.022493445036
8	9560	0.068	0.009307609304
8	9561	0.068	0.009240608858
8	9562	0.068	0.009173608412
8	9563	0.068	0.035556653075
8	9564	0.068	0.022426127647
8	9565	0.068	0.022358810258
8	9566	0.068	0.009106607966
8	9567	0.068	0.00903960752
8	9568	0.068	0.008972607074
8	9569	0.068	0.035488351292
8	9570	0.068	0.022291492869
8	9571	0.068	0.02222417548
8	9572	0.068	0.008905606628
8	9573	0.068	0.008838606182
8	9574	0.068	0.008771605736
8	9685	0.069	0.036420049509
8	9686	0.069	0.036351747726
8	9687	0.069	0.036283445943
8	9688	0.069	0.023156858091
8	9689	0.069	0.023089540702
8	9690	0.069	0.00970460529
8	9691	0.069	0.03621514416
8	9692	0.069	0.023022223313
8	9693	0.069	0.022954905924
8	9694	0.069	0.009637604844
8	9695	0.069	0.009570604398
8	9696	0.069	0.009503603952
8	9697	0.069	0.036146842377
8	9698	0.069	0.022887588535
8	9699	0.069	0.022820271146
8	9700	0.069	0.009436603506
8	9701	0.069	0.00936960306
8	9702	0.069	0.009302602614
8	9703	0.069	0.036078540594
8	9704	0.069	0.022752953757
8	9705	0.069	0.022685636368
8	9706	0.069	0.009235602168
8	9707	0.069	0.009168601722
8	9708	0.069	0.009101601276
8	9709	0.069	0.036010238811
8	9710	0.069	0.022618318979
8	9711	0.069	0.02255100159
8	9712	0.069	0.00903460083
8	9713	0.069	0.008967600384
8	9714	0.069	0.008900599938
8	9825	0.07	0.036941937028
8	9826	0.07	0.036873635245
8	9827	0.07	0.036805333462
8	9828	0.07	0.023483684201
8	9829	0.07	0.023416366812
8	9830	0.07	0.009833599492
8	9831	0.07	0.036737031679
8	9832	0.07	0.023349049423
8	9833	0.07	0.023281732034
8	9834	0.07	0.009766599046
8	9835	0.07	0.0096995986
8	9836	0.07	0.009632598154
8	9837	0.07	0.036668729896
8	9838	0.07	0.023214414645
8	9839	0.07	0.023147097256
8	9840	0.07	0.009565597708
8	9841	0.07	0.009498597262
8	9842	0.07	0.009431596816
8	9843	0.07	0.036600428113
8	9844	0.07	0.023079779867
8	9845	0.07	0.023012462478
8	9846	0.07	0.00936459637
8	9847	0.07	0.009297595924
8	9848	0.07	0.009230595478
8	9849	0.07	0.03653212633
8	9850	0.07	0.022945145089
8	9851	0.07	0.0228778277
8	9852	0.07	0.009163595032
8	9853	0.07	0.009096594586
8	9854	0.07	0.00902959414
8	9967	0.071	0.037463824547
8	9968	0.071	0.037395522764
8	9969	0.071	0.037327220981
8	9970	0.071	0.023810510311
8	9971	0.071	0.023743192922
8	9972	0.071	0.009962593694
8	9973	0.071	0.037258919198
8	9974	0.071	0.023675875533
8	9975	0.071	0.023608558144
8	9976	0.071	0.009895593248
8	9977	0.071	0.009828592802
8	9978	0.071	0.009761592356
8	9979	0.071	0.037190617415
8	9980	0.071	0.023541240755
8	9981	0.071	0.023473923366
8	9982	0.071	0.00969459191
8	9983	0.071	0.009627591464
8	9984	0.071	0.009560591018
8	9985	0.071	0.037122315632
8	9986	0.071	0.023406605977
8	9987	0.071	0.023339288588
8	9988	0.071	0.009493590572
8	9989	0.071	0.009426590126
8	9990	0.071	0.00935958968
8	9991	0.071	0.037054013849
8	9992	0.071	0.023271971199
8	9993	0.071	0.02320465381
8	9994	0.071	0.009292589234
8	9995	0.071	0.009225588788
8	9996	0.071	0.009158588342

