version 2
run _3UsersSetupWRR-0-20201129-19:21:47-216
attr configname _3UsersSetupWRR
attr datetime 20201129-19:21:47
attr experiment _3UsersSetupWRR
attr inifile omnetpp.ini
attr iterationvars ""
attr iterationvarsf ""
attr measurement ""
attr network Network
attr processid 216
attr repetition 0
attr replication #0
attr resultdir results
attr runnumber 0
attr seedset 0
param **.algorithm "\"wrr\""
param **.usersCount 3
param **.channelsCount 30
param **.networkLoad 1.5
param **.scheduler.generateInterval 1ms
param **.gen.generateInterval "triang(0.9ms, 1.0ms, 1.1ms)"
param **.user[0].radioLinkQuality 1
param **.user[1].radioLinkQuality 2
param **.user[2].radioLinkQuality 3
param **.user[0].gen.startingMessage 0
param **.user[1].gen.startingMessage 100
param **.user[2].gen.startingMessage 200

vector 0 Network.user[0].queue "Queue before scheduler's run." ETV
vector 1 Network.user[1].queue "Queue before scheduler's run." ETV
vector 2 Network.user[2].queue "Queue before scheduler's run." ETV
vector 3 Network.scheduler "Scheduler free channels" ETV
vector 4 Network.scheduler "Total users' queues lengths" ETV
vector 5 Network.user[0].queue "Queue after scheduler's run." ETV
vector 6 Network.user[1].queue "Queue after scheduler's run." ETV
vector 7 Network.user[2].queue "Queue after scheduler's run." ETV
vector 8 Network.sink lifetime:vector ETV
attr interpolationmode none
attr title "lifetime of arrived jobs, vector"
attr unit s
0	86	0.001	14
0	229	0.002	23
0	369	0.003	33
0	512	0.004	43
0	654	0.005	53
0	794	0.006	63
0	935	0.007	72
0	1077	0.008	82
0	1217	0.009	92
0	1360	0.01	102
0	1502	0.011	112
0	1642	0.012	122
0	1785	0.013	131
0	1921	0.014	140
0	2064	0.015	150
0	2206	0.016	160
0	2346	0.017	170
0	2489	0.018	179
0	2631	0.019	189
0	2771	0.02	199
0	2912	0.021	209
0	3054	0.022	219
0	3194	0.023	229
0	3337	0.024	238
0	3479	0.025	248
0	3619	0.026	258
0	3760	0.027	267
0	3898	0.028	277
0	4041	0.029	286
0	4183	0.03	296
0	4323	0.031	306
0	4466	0.032	316
0	4608	0.033	326
0	4748	0.034	336
0	4889	0.035	345
0	5031	0.036	355
0	5171	0.037	365
0	5314	0.038	375
0	5454	0.039	385
0	5597	0.04	394
0	5737	0.041	403
0	5875	0.042	413
0	6018	0.043	423
0	6160	0.044	433
0	6300	0.045	443
0	6443	0.046	452
0	6585	0.047	462
0	6725	0.048	472
0	6866	0.049	482
0	7008	0.05	492
0	7148	0.051	502
0	7291	0.052	511
0	7431	0.053	521
0	7572	0.054	530
0	7714	0.055	540
0	7852	0.056	550
0	7995	0.057	559
0	8137	0.058	569
0	8277	0.059	579
0	8420	0.06	589
0	8562	0.061	599
0	8702	0.062	609
0	8843	0.063	618
0	8985	0.064	628
0	9125	0.065	638
0	9268	0.066	648
0	9406	0.067	657
0	9549	0.068	666
0	9689	0.069	676
0	9829	0.07	686
0	9972	0.071	696
1	87	0.001	14
1	230	0.002	19
1	370	0.003	24
1	513	0.004	28
1	655	0.005	33
1	795	0.006	38
1	936	0.007	42
1	1078	0.008	47
1	1218	0.009	52
1	1361	0.01	56
1	1503	0.011	61
1	1643	0.012	66
1	1786	0.013	71
1	1922	0.014	75
1	2065	0.015	79
1	2207	0.016	84
1	2347	0.017	89
1	2490	0.018	94
1	2632	0.019	99
1	2772	0.02	104
1	2913	0.021	107
1	3055	0.022	112
1	3195	0.023	117
1	3338	0.024	122
1	3480	0.025	127
1	3620	0.026	132
1	3761	0.027	136
1	3899	0.028	140
1	4042	0.029	145
1	4184	0.03	150
1	4324	0.031	155
1	4467	0.032	159
1	4609	0.033	164
1	4749	0.034	169
1	4890	0.035	173
1	5032	0.036	178
1	5172	0.037	183
1	5315	0.038	187
1	5455	0.039	192
1	5598	0.04	197
1	5738	0.041	202
1	5876	0.042	206
1	6019	0.043	210
1	6161	0.044	215
1	6301	0.045	220
1	6444	0.046	225
1	6586	0.047	230
1	6726	0.048	235
1	6867	0.049	238
1	7009	0.05	243
1	7149	0.051	248
1	7292	0.052	253
1	7432	0.053	258
1	7573	0.054	262
1	7715	0.055	267
1	7853	0.056	271
1	7996	0.057	276
1	8138	0.058	281
1	8278	0.059	286
1	8421	0.06	290
1	8563	0.061	295
1	8703	0.062	300
1	8844	0.063	304
1	8986	0.064	309
1	9126	0.065	314
1	9269	0.066	318
1	9407	0.067	323
1	9550	0.068	328
1	9690	0.069	332
1	9830	0.07	337
1	9973	0.071	341
2	88	0.001	14
2	231	0.002	15
2	371	0.003	14
2	514	0.004	15
2	656	0.005	15
2	796	0.006	14
2	937	0.007	15
2	1079	0.008	15
2	1219	0.009	14
2	1362	0.01	15
2	1504	0.011	15
2	1644	0.012	14
2	1787	0.013	15
2	1923	0.014	14
2	2066	0.015	15
2	2208	0.016	15
2	2348	0.017	14
2	2491	0.018	15
2	2633	0.019	15
2	2773	0.02	14
2	2914	0.021	15
2	3056	0.022	15
2	3196	0.023	14
2	3339	0.024	15
2	3481	0.025	15
2	3621	0.026	14
2	3762	0.027	15
2	3900	0.028	14
2	4043	0.029	15
2	4185	0.03	15
2	4325	0.031	14
2	4468	0.032	15
2	4610	0.033	15
2	4750	0.034	14
2	4891	0.035	15
2	5033	0.036	15
2	5173	0.037	14
2	5316	0.038	15
2	5456	0.039	14
2	5599	0.04	15
2	5739	0.041	15
2	5877	0.042	14
2	6020	0.043	15
2	6162	0.044	15
2	6302	0.045	14
2	6445	0.046	15
2	6587	0.047	15
2	6727	0.048	14
2	6868	0.049	15
2	7010	0.05	15
2	7150	0.051	14
2	7293	0.052	15
2	7433	0.053	14
2	7574	0.054	15
2	7716	0.055	15
2	7854	0.056	14
2	7997	0.057	15
2	8139	0.058	15
2	8279	0.059	14
2	8422	0.06	15
2	8564	0.061	15
2	8704	0.062	14
2	8845	0.063	15
2	8987	0.064	15
2	9127	0.065	14
2	9270	0.066	15
2	9408	0.067	14
2	9551	0.068	15
2	9691	0.069	15
2	9831	0.07	14
2	9974	0.071	15
3	91	0.001	0
3	234	0.002	0
3	374	0.003	0
3	517	0.004	0
3	659	0.005	0
3	799	0.006	0
3	940	0.007	0
3	1082	0.008	0
3	1222	0.009	0
3	1365	0.01	0
3	1507	0.011	0
3	1647	0.012	0
3	1790	0.013	0
3	1926	0.014	0
3	2069	0.015	0
3	2211	0.016	0
3	2351	0.017	0
3	2494	0.018	0
3	2636	0.019	0
3	2776	0.02	0
3	2917	0.021	0
3	3059	0.022	0
3	3199	0.023	0
3	3342	0.024	0
3	3484	0.025	0
3	3624	0.026	0
3	3765	0.027	0
3	3903	0.028	0
3	4046	0.029	0
3	4188	0.03	0
3	4328	0.031	0
3	4471	0.032	0
3	4613	0.033	0
3	4753	0.034	0
3	4894	0.035	0
3	5036	0.036	0
3	5176	0.037	0
3	5319	0.038	0
3	5459	0.039	0
3	5602	0.04	0
3	5742	0.041	0
3	5880	0.042	0
3	6023	0.043	0
3	6165	0.044	0
3	6305	0.045	0
3	6448	0.046	0
3	6590	0.047	0
3	6730	0.048	0
3	6871	0.049	0
3	7013	0.05	0
3	7153	0.051	0
3	7296	0.052	0
3	7436	0.053	0
3	7577	0.054	0
3	7719	0.055	0
3	7857	0.056	0
3	8000	0.057	0
3	8142	0.058	0
3	8282	0.059	0
3	8425	0.06	0
3	8567	0.061	0
3	8707	0.062	0
3	8848	0.063	0
3	8990	0.064	0
3	9130	0.065	0
3	9273	0.066	0
3	9411	0.067	0
3	9554	0.068	0
3	9694	0.069	0
3	9834	0.07	0
3	9977	0.071	0
4	91	0.001	12
4	234	0.002	27
4	374	0.003	41
4	517	0.004	56
4	659	0.005	71
4	799	0.006	85
4	940	0.007	99
4	1082	0.008	114
4	1222	0.009	128
4	1365	0.01	143
4	1507	0.011	158
4	1647	0.012	172
4	1790	0.013	187
4	1926	0.014	199
4	2069	0.015	214
4	2211	0.016	229
4	2351	0.017	243
4	2494	0.018	258
4	2636	0.019	273
4	2776	0.02	287
4	2917	0.021	301
4	3059	0.022	316
4	3199	0.023	330
4	3342	0.024	345
4	3484	0.025	360
4	3624	0.026	374
4	3765	0.027	388
4	3903	0.028	401
4	4046	0.029	416
4	4188	0.03	431
4	4328	0.031	445
4	4471	0.032	460
4	4613	0.033	475
4	4753	0.034	489
4	4894	0.035	503
4	5036	0.036	518
4	5176	0.037	532
4	5319	0.038	547
4	5459	0.039	561
4	5602	0.04	576
4	5742	0.041	590
4	5880	0.042	603
4	6023	0.043	618
4	6165	0.044	633
4	6305	0.045	647
4	6448	0.046	662
4	6590	0.047	677
4	6730	0.048	691
4	6871	0.049	705
4	7013	0.05	720
4	7153	0.051	734
4	7296	0.052	749
4	7436	0.053	763
4	7577	0.054	777
4	7719	0.055	792
4	7857	0.056	805
4	8000	0.057	820
4	8142	0.058	835
4	8282	0.059	849
4	8425	0.06	864
4	8567	0.061	879
4	8707	0.062	893
4	8848	0.063	907
4	8990	0.064	922
4	9130	0.065	936
4	9273	0.066	951
4	9411	0.067	964
4	9554	0.068	979
4	9694	0.069	993
4	9834	0.07	1007
4	9977	0.071	1022
5	92	0.001	13
5	95	0.001	12
5	98	0.001	11
5	101	0.001	10
5	104	0.001	9
5	107	0.001	8
5	237	0.002	22
5	240	0.002	21
5	243	0.002	20
5	246	0.002	19
5	249	0.002	18
5	377	0.003	32
5	380	0.003	31
5	383	0.003	30
5	386	0.003	29
5	389	0.003	28
5	519	0.004	42
5	522	0.004	41
5	525	0.004	40
5	528	0.004	39
5	531	0.004	38
5	661	0.005	52
5	664	0.005	51
5	667	0.005	50
5	670	0.005	49
5	673	0.005	48
5	801	0.006	62
5	804	0.006	61
5	807	0.006	60
5	810	0.006	59
5	813	0.006	58
5	815	0.006	57
5	943	0.007	71
5	946	0.007	70
5	949	0.007	69
5	952	0.007	68
5	955	0.007	67
5	1085	0.008	81
5	1088	0.008	80
5	1091	0.008	79
5	1094	0.008	78
5	1097	0.008	77
5	1225	0.009	91
5	1228	0.009	90
5	1231	0.009	89
5	1234	0.009	88
5	1237	0.009	87
5	1367	0.01	101
5	1370	0.01	100
5	1373	0.01	99
5	1376	0.01	98
5	1379	0.01	97
5	1509	0.011	111
5	1512	0.011	110
5	1515	0.011	109
5	1518	0.011	108
5	1521	0.011	107
5	1649	0.012	121
5	1652	0.012	120
5	1655	0.012	119
5	1658	0.012	118
5	1661	0.012	117
5	1663	0.012	116
5	1793	0.013	130
5	1796	0.013	129
5	1799	0.013	128
5	1802	0.013	127
5	1805	0.013	126
5	1929	0.014	139
5	1932	0.014	138
5	1935	0.014	137
5	1938	0.014	136
5	1941	0.014	135
5	2071	0.015	149
5	2074	0.015	148
5	2077	0.015	147
5	2080	0.015	146
5	2083	0.015	145
5	2213	0.016	159
5	2216	0.016	158
5	2219	0.016	157
5	2222	0.016	156
5	2225	0.016	155
5	2353	0.017	169
5	2356	0.017	168
5	2359	0.017	167
5	2362	0.017	166
5	2365	0.017	165
5	2367	0.017	164
5	2497	0.018	178
5	2500	0.018	177
5	2503	0.018	176
5	2506	0.018	175
5	2509	0.018	174
5	2639	0.019	188
5	2642	0.019	187
5	2645	0.019	186
5	2648	0.019	185
5	2651	0.019	184
5	2779	0.02	198
5	2782	0.02	197
5	2785	0.02	196
5	2788	0.02	195
5	2791	0.02	194
5	2919	0.021	208
5	2922	0.021	207
5	2925	0.021	206
5	2928	0.021	205
5	2931	0.021	204
5	3061	0.022	218
5	3064	0.022	217
5	3067	0.022	216
5	3070	0.022	215
5	3073	0.022	214
5	3201	0.023	228
5	3204	0.023	227
5	3207	0.023	226
5	3210	0.023	225
5	3213	0.023	224
5	3215	0.023	223
5	3345	0.024	237
5	3348	0.024	236
5	3351	0.024	235
5	3354	0.024	234
5	3357	0.024	233
5	3487	0.025	247
5	3490	0.025	246
5	3493	0.025	245
5	3496	0.025	244
5	3499	0.025	243
5	3627	0.026	257
5	3630	0.026	256
5	3633	0.026	255
5	3636	0.026	254
5	3639	0.026	253
5	3767	0.027	266
5	3770	0.027	265
5	3773	0.027	264
5	3776	0.027	263
5	3779	0.027	262
5	3905	0.028	276
5	3908	0.028	275
5	3911	0.028	274
5	3914	0.028	273
5	3917	0.028	272
5	3919	0.028	271
5	4049	0.029	285
5	4052	0.029	284
5	4055	0.029	283
5	4058	0.029	282
5	4061	0.029	281
5	4191	0.03	295
5	4194	0.03	294
5	4197	0.03	293
5	4200	0.03	292
5	4203	0.03	291
5	4331	0.031	305
5	4334	0.031	304
5	4337	0.031	303
5	4340	0.031	302
5	4343	0.031	301
5	4473	0.032	315
5	4476	0.032	314
5	4479	0.032	313
5	4482	0.032	312
5	4485	0.032	311
5	4615	0.033	325
5	4618	0.033	324
5	4621	0.033	323
5	4624	0.033	322
5	4627	0.033	321
5	4755	0.034	335
5	4758	0.034	334
5	4761	0.034	333
5	4764	0.034	332
5	4767	0.034	331
5	4769	0.034	330
5	4897	0.035	344
5	4900	0.035	343
5	4903	0.035	342
5	4906	0.035	341
5	4909	0.035	340
5	5039	0.036	354
5	5042	0.036	353
5	5045	0.036	352
5	5048	0.036	351
5	5051	0.036	350
5	5179	0.037	364
5	5182	0.037	363
5	5185	0.037	362
5	5188	0.037	361
5	5191	0.037	360
5	5321	0.038	374
5	5324	0.038	373
5	5327	0.038	372
5	5330	0.038	371
5	5333	0.038	370
5	5461	0.039	384
5	5464	0.039	383
5	5467	0.039	382
5	5470	0.039	381
5	5473	0.039	380
5	5475	0.039	379
5	5605	0.04	393
5	5608	0.04	392
5	5611	0.04	391
5	5614	0.04	390
5	5617	0.04	389
5	5745	0.041	402
5	5748	0.041	401
5	5751	0.041	400
5	5754	0.041	399
5	5757	0.041	398
5	5883	0.042	412
5	5886	0.042	411
5	5889	0.042	410
5	5892	0.042	409
5	5895	0.042	408
5	6025	0.043	422
5	6028	0.043	421
5	6031	0.043	420
5	6034	0.043	419
5	6037	0.043	418
5	6167	0.044	432
5	6170	0.044	431
5	6173	0.044	430
5	6176	0.044	429
5	6179	0.044	428
5	6307	0.045	442
5	6310	0.045	441
5	6313	0.045	440
5	6316	0.045	439
5	6319	0.045	438
5	6321	0.045	437
5	6451	0.046	451
5	6454	0.046	450
5	6457	0.046	449
5	6460	0.046	448
5	6463	0.046	447
5	6593	0.047	461
5	6596	0.047	460
5	6599	0.047	459
5	6602	0.047	458
5	6605	0.047	457
5	6733	0.048	471
5	6736	0.048	470
5	6739	0.048	469
5	6742	0.048	468
5	6745	0.048	467
5	6873	0.049	481
5	6876	0.049	480
5	6879	0.049	479
5	6882	0.049	478
5	6885	0.049	477
5	7015	0.05	491
5	7018	0.05	490
5	7021	0.05	489
5	7024	0.05	488
5	7027	0.05	487
5	7155	0.051	501
5	7158	0.051	500
5	7161	0.051	499
5	7164	0.051	498
5	7167	0.051	497
5	7169	0.051	496
5	7299	0.052	510
5	7302	0.052	509
5	7305	0.052	508
5	7308	0.052	507
5	7311	0.052	506
5	7439	0.053	520
5	7442	0.053	519
5	7445	0.053	518
5	7448	0.053	517
5	7451	0.053	516
5	7579	0.054	529
5	7582	0.054	528
5	7585	0.054	527
5	7588	0.054	526
5	7591	0.054	525
5	7721	0.055	539
5	7724	0.055	538
5	7727	0.055	537
5	7730	0.055	536
5	7733	0.055	535
5	7859	0.056	549
5	7862	0.056	548
5	7865	0.056	547
5	7868	0.056	546
5	7871	0.056	545
5	7873	0.056	544
5	8003	0.057	558
5	8006	0.057	557
5	8009	0.057	556
5	8012	0.057	555
5	8015	0.057	554
5	8145	0.058	568
5	8148	0.058	567
5	8151	0.058	566
5	8154	0.058	565
5	8157	0.058	564
5	8285	0.059	578
5	8288	0.059	577
5	8291	0.059	576
5	8294	0.059	575
5	8297	0.059	574
5	8427	0.06	588
5	8430	0.06	587
5	8433	0.06	586
5	8436	0.06	585
5	8439	0.06	584
5	8569	0.061	598
5	8572	0.061	597
5	8575	0.061	596
5	8578	0.061	595
5	8581	0.061	594
5	8709	0.062	608
5	8712	0.062	607
5	8715	0.062	606
5	8718	0.062	605
5	8721	0.062	604
5	8723	0.062	603
5	8851	0.063	617
5	8854	0.063	616
5	8857	0.063	615
5	8860	0.063	614
5	8863	0.063	613
5	8993	0.064	627
5	8996	0.064	626
5	8999	0.064	625
5	9002	0.064	624
5	9005	0.064	623
5	9133	0.065	637
5	9136	0.065	636
5	9139	0.065	635
5	9142	0.065	634
5	9145	0.065	633
5	9275	0.066	647
5	9278	0.066	646
5	9281	0.066	645
5	9284	0.066	644
5	9287	0.066	643
5	9413	0.067	656
5	9416	0.067	655
5	9419	0.067	654
5	9422	0.067	653
5	9425	0.067	652
5	9427	0.067	651
5	9557	0.068	665
5	9560	0.068	664
5	9563	0.068	663
5	9566	0.068	662
5	9569	0.068	661
5	9697	0.069	675
5	9700	0.069	674
5	9703	0.069	673
5	9706	0.069	672
5	9709	0.069	671
5	9837	0.07	685
5	9840	0.07	684
5	9843	0.07	683
5	9846	0.07	682
5	9849	0.07	681
5	9979	0.071	695
5	9982	0.071	694
5	9985	0.071	693
5	9988	0.071	692
5	9991	0.071	691
6	93	0.001	12
6	96	0.001	10
6	99	0.001	8
6	102	0.001	6
6	105	0.001	4
6	235	0.002	17
6	238	0.002	15
6	241	0.002	13
6	244	0.002	11
6	247	0.002	9
6	375	0.003	22
6	378	0.003	20
6	381	0.003	18
6	384	0.003	16
6	387	0.003	14
6	390	0.003	13
6	520	0.004	26
6	523	0.004	24
6	526	0.004	22
6	529	0.004	20
6	532	0.004	18
6	662	0.005	31
6	665	0.005	29
6	668	0.005	27
6	671	0.005	25
6	674	0.005	23
6	802	0.006	36
6	805	0.006	34
6	808	0.006	32
6	811	0.006	30
6	814	0.006	28
6	941	0.007	40
6	944	0.007	38
6	947	0.007	36
6	950	0.007	34
6	953	0.007	32
6	1083	0.008	45
6	1086	0.008	43
6	1089	0.008	41
6	1092	0.008	39
6	1095	0.008	37
6	1223	0.009	50
6	1226	0.009	48
6	1229	0.009	46
6	1232	0.009	44
6	1235	0.009	42
6	1238	0.009	41
6	1368	0.01	54
6	1371	0.01	52
6	1374	0.01	50
6	1377	0.01	48
6	1380	0.01	46
6	1510	0.011	59
6	1513	0.011	57
6	1516	0.011	55
6	1519	0.011	53
6	1522	0.011	51
6	1650	0.012	64
6	1653	0.012	62
6	1656	0.012	60
6	1659	0.012	58
6	1662	0.012	56
6	1791	0.013	69
6	1794	0.013	67
6	1797	0.013	65
6	1800	0.013	63
6	1803	0.013	61
6	1927	0.014	73
6	1930	0.014	71
6	1933	0.014	69
6	1936	0.014	67
6	1939	0.014	65
6	1942	0.014	64
6	2072	0.015	77
6	2075	0.015	75
6	2078	0.015	73
6	2081	0.015	71
6	2084	0.015	69
6	2214	0.016	82
6	2217	0.016	80
6	2220	0.016	78
6	2223	0.016	76
6	2226	0.016	74
6	2354	0.017	87
6	2357	0.017	85
6	2360	0.017	83
6	2363	0.017	81
6	2366	0.017	79
6	2495	0.018	92
6	2498	0.018	90
6	2501	0.018	88
6	2504	0.018	86
6	2507	0.018	84
6	2637	0.019	97
6	2640	0.019	95
6	2643	0.019	93
6	2646	0.019	91
6	2649	0.019	89
6	2777	0.02	102
6	2780	0.02	100
6	2783	0.02	98
6	2786	0.02	96
6	2789	0.02	94
6	2792	0.02	93
6	2920	0.021	105
6	2923	0.021	103
6	2926	0.021	101
6	2929	0.021	99
6	2932	0.021	97
6	3062	0.022	110
6	3065	0.022	108
6	3068	0.022	106
6	3071	0.022	104
6	3074	0.022	102
6	3202	0.023	115
6	3205	0.023	113
6	3208	0.023	111
6	3211	0.023	109
6	3214	0.023	107
6	3343	0.024	120
6	3346	0.024	118
6	3349	0.024	116
6	3352	0.024	114
6	3355	0.024	112
6	3485	0.025	125
6	3488	0.025	123
6	3491	0.025	121
6	3494	0.025	119
6	3497	0.025	117
6	3625	0.026	130
6	3628	0.026	128
6	3631	0.026	126
6	3634	0.026	124
6	3637	0.026	122
6	3640	0.026	121
6	3768	0.027	134
6	3771	0.027	132
6	3774	0.027	130
6	3777	0.027	128
6	3780	0.027	126
6	3906	0.028	138
6	3909	0.028	136
6	3912	0.028	134
6	3915	0.028	132
6	3918	0.028	130
6	4047	0.029	143
6	4050	0.029	141
6	4053	0.029	139
6	4056	0.029	137
6	4059	0.029	135
6	4189	0.03	148
6	4192	0.03	146
6	4195	0.03	144
6	4198	0.03	142
6	4201	0.03	140
6	4329	0.031	153
6	4332	0.031	151
6	4335	0.031	149
6	4338	0.031	147
6	4341	0.031	145
6	4344	0.031	144
6	4474	0.032	157
6	4477	0.032	155
6	4480	0.032	153
6	4483	0.032	151
6	4486	0.032	149
6	4616	0.033	162
6	4619	0.033	160
6	4622	0.033	158
6	4625	0.033	156
6	4628	0.033	154
6	4756	0.034	167
6	4759	0.034	165
6	4762	0.034	163
6	4765	0.034	161
6	4768	0.034	159
6	4895	0.035	171
6	4898	0.035	169
6	4901	0.035	167
6	4904	0.035	165
6	4907	0.035	163
6	5037	0.036	176
6	5040	0.036	174
6	5043	0.036	172
6	5046	0.036	170
6	5049	0.036	168
6	5177	0.037	181
6	5180	0.037	179
6	5183	0.037	177
6	5186	0.037	175
6	5189	0.037	173
6	5192	0.037	172
6	5322	0.038	185
6	5325	0.038	183
6	5328	0.038	181
6	5331	0.038	179
6	5334	0.038	177
6	5462	0.039	190
6	5465	0.039	188
6	5468	0.039	186
6	5471	0.039	184
6	5474	0.039	182
6	5603	0.04	195
6	5606	0.04	193
6	5609	0.04	191
6	5612	0.04	189
6	5615	0.04	187
6	5743	0.041	200
6	5746	0.041	198
6	5749	0.041	196
6	5752	0.041	194
6	5755	0.041	192
6	5881	0.042	204
6	5884	0.042	202
6	5887	0.042	200
6	5890	0.042	198
6	5893	0.042	196
6	5896	0.042	195
6	6026	0.043	208
6	6029	0.043	206
6	6032	0.043	204
6	6035	0.043	202
6	6038	0.043	200
6	6168	0.044	213
6	6171	0.044	211
6	6174	0.044	209
6	6177	0.044	207
6	6180	0.044	205
6	6308	0.045	218
6	6311	0.045	216
6	6314	0.045	214
6	6317	0.045	212
6	6320	0.045	210
6	6449	0.046	223
6	6452	0.046	221
6	6455	0.046	219
6	6458	0.046	217
6	6461	0.046	215
6	6591	0.047	228
6	6594	0.047	226
6	6597	0.047	224
6	6600	0.047	222
6	6603	0.047	220
6	6731	0.048	233
6	6734	0.048	231
6	6737	0.048	229
6	6740	0.048	227
6	6743	0.048	225
6	6746	0.048	224
6	6874	0.049	236
6	6877	0.049	234
6	6880	0.049	232
6	6883	0.049	230
6	6886	0.049	228
6	7016	0.05	241
6	7019	0.05	239
6	7022	0.05	237
6	7025	0.05	235
6	7028	0.05	233
6	7156	0.051	246
6	7159	0.051	244
6	7162	0.051	242
6	7165	0.051	240
6	7168	0.051	238
6	7297	0.052	251
6	7300	0.052	249
6	7303	0.052	247
6	7306	0.052	245
6	7309	0.052	243
6	7437	0.053	256
6	7440	0.053	254
6	7443	0.053	252
6	7446	0.053	250
6	7449	0.053	248
6	7452	0.053	247
6	7580	0.054	260
6	7583	0.054	258
6	7586	0.054	256
6	7589	0.054	254
6	7592	0.054	252
6	7722	0.055	265
6	7725	0.055	263
6	7728	0.055	261
6	7731	0.055	259
6	7734	0.055	257
6	7860	0.056	269
6	7863	0.056	267
6	7866	0.056	265
6	7869	0.056	263
6	7872	0.056	261
6	8001	0.057	274
6	8004	0.057	272
6	8007	0.057	270
6	8010	0.057	268
6	8013	0.057	266
6	8143	0.058	279
6	8146	0.058	277
6	8149	0.058	275
6	8152	0.058	273
6	8155	0.058	271
6	8283	0.059	284
6	8286	0.059	282
6	8289	0.059	280
6	8292	0.059	278
6	8295	0.059	276
6	8298	0.059	275
6	8428	0.06	288
6	8431	0.06	286
6	8434	0.06	284
6	8437	0.06	282
6	8440	0.06	280
6	8570	0.061	293
6	8573	0.061	291
6	8576	0.061	289
6	8579	0.061	287
6	8582	0.061	285
6	8710	0.062	298
6	8713	0.062	296
6	8716	0.062	294
6	8719	0.062	292
6	8722	0.062	290
6	8849	0.063	302
6	8852	0.063	300
6	8855	0.063	298
6	8858	0.063	296
6	8861	0.063	294
6	8991	0.064	307
6	8994	0.064	305
6	8997	0.064	303
6	9000	0.064	301
6	9003	0.064	299
6	9131	0.065	312
6	9134	0.065	310
6	9137	0.065	308
6	9140	0.065	306
6	9143	0.065	304
6	9146	0.065	303
6	9276	0.066	316
6	9279	0.066	314
6	9282	0.066	312
6	9285	0.066	310
6	9288	0.066	308
6	9414	0.067	321
6	9417	0.067	319
6	9420	0.067	317
6	9423	0.067	315
6	9426	0.067	313
6	9555	0.068	326
6	9558	0.068	324
6	9561	0.068	322
6	9564	0.068	320
6	9567	0.068	318
6	9695	0.069	330
6	9698	0.069	328
6	9701	0.069	326
6	9704	0.069	324
6	9707	0.069	322
6	9835	0.07	335
6	9838	0.07	333
6	9841	0.07	331
6	9844	0.07	329
6	9847	0.07	327
6	9850	0.07	326
6	9980	0.071	339
6	9983	0.071	337
6	9986	0.071	335
6	9989	0.071	333
6	9992	0.071	331
7	94	0.001	11
7	97	0.001	8
7	100	0.001	5
7	103	0.001	2
7	106	0.001	0
7	236	0.002	12
7	239	0.002	9
7	242	0.002	6
7	245	0.002	3
7	248	0.002	0
7	376	0.003	11
7	379	0.003	8
7	382	0.003	5
7	385	0.003	2
7	388	0.003	0
7	518	0.004	12
7	521	0.004	9
7	524	0.004	6
7	527	0.004	3
7	530	0.004	0
7	660	0.005	12
7	663	0.005	9
7	666	0.005	6
7	669	0.005	3
7	672	0.005	0
7	800	0.006	11
7	803	0.006	8
7	806	0.006	5
7	809	0.006	2
7	812	0.006	0
7	942	0.007	12
7	945	0.007	9
7	948	0.007	6
7	951	0.007	3
7	954	0.007	0
7	1084	0.008	12
7	1087	0.008	9
7	1090	0.008	6
7	1093	0.008	3
7	1096	0.008	0
7	1224	0.009	11
7	1227	0.009	8
7	1230	0.009	5
7	1233	0.009	2
7	1236	0.009	0
7	1366	0.01	12
7	1369	0.01	9
7	1372	0.01	6
7	1375	0.01	3
7	1378	0.01	0
7	1508	0.011	12
7	1511	0.011	9
7	1514	0.011	6
7	1517	0.011	3
7	1520	0.011	0
7	1648	0.012	11
7	1651	0.012	8
7	1654	0.012	5
7	1657	0.012	2
7	1660	0.012	0
7	1792	0.013	12
7	1795	0.013	9
7	1798	0.013	6
7	1801	0.013	3
7	1804	0.013	0
7	1928	0.014	11
7	1931	0.014	8
7	1934	0.014	5
7	1937	0.014	2
7	1940	0.014	0
7	2070	0.015	12
7	2073	0.015	9
7	2076	0.015	6
7	2079	0.015	3
7	2082	0.015	0
7	2212	0.016	12
7	2215	0.016	9
7	2218	0.016	6
7	2221	0.016	3
7	2224	0.016	0
7	2352	0.017	11
7	2355	0.017	8
7	2358	0.017	5
7	2361	0.017	2
7	2364	0.017	0
7	2496	0.018	12
7	2499	0.018	9
7	2502	0.018	6
7	2505	0.018	3
7	2508	0.018	0
7	2638	0.019	12
7	2641	0.019	9
7	2644	0.019	6
7	2647	0.019	3
7	2650	0.019	0
7	2778	0.02	11
7	2781	0.02	8
7	2784	0.02	5
7	2787	0.02	2
7	2790	0.02	0
7	2918	0.021	12
7	2921	0.021	9
7	2924	0.021	6
7	2927	0.021	3
7	2930	0.021	0
7	3060	0.022	12
7	3063	0.022	9
7	3066	0.022	6
7	3069	0.022	3
7	3072	0.022	0
7	3200	0.023	11
7	3203	0.023	8
7	3206	0.023	5
7	3209	0.023	2
7	3212	0.023	0
7	3344	0.024	12
7	3347	0.024	9
7	3350	0.024	6
7	3353	0.024	3
7	3356	0.024	0
7	3486	0.025	12
7	3489	0.025	9
7	3492	0.025	6
7	3495	0.025	3
7	3498	0.025	0
7	3626	0.026	11
7	3629	0.026	8
7	3632	0.026	5
7	3635	0.026	2
7	3638	0.026	0
7	3766	0.027	12
7	3769	0.027	9
7	3772	0.027	6
7	3775	0.027	3
7	3778	0.027	0
7	3904	0.028	11
7	3907	0.028	8
7	3910	0.028	5
7	3913	0.028	2
7	3916	0.028	0
7	4048	0.029	12
7	4051	0.029	9
7	4054	0.029	6
7	4057	0.029	3
7	4060	0.029	0
7	4190	0.03	12
7	4193	0.03	9
7	4196	0.03	6
7	4199	0.03	3
7	4202	0.03	0
7	4330	0.031	11
7	4333	0.031	8
7	4336	0.031	5
7	4339	0.031	2
7	4342	0.031	0
7	4472	0.032	12
7	4475	0.032	9
7	4478	0.032	6
7	4481	0.032	3
7	4484	0.032	0
7	4614	0.033	12
7	4617	0.033	9
7	4620	0.033	6
7	4623	0.033	3
7	4626	0.033	0
7	4754	0.034	11
7	4757	0.034	8
7	4760	0.034	5
7	4763	0.034	2
7	4766	0.034	0
7	4896	0.035	12
7	4899	0.035	9
7	4902	0.035	6
7	4905	0.035	3
7	4908	0.035	0
7	5038	0.036	12
7	5041	0.036	9
7	5044	0.036	6
7	5047	0.036	3
7	5050	0.036	0
7	5178	0.037	11
7	5181	0.037	8
7	5184	0.037	5
7	5187	0.037	2
7	5190	0.037	0
7	5320	0.038	12
7	5323	0.038	9
7	5326	0.038	6
7	5329	0.038	3
7	5332	0.038	0
7	5460	0.039	11
7	5463	0.039	8
7	5466	0.039	5
7	5469	0.039	2
7	5472	0.039	0
7	5604	0.04	12
7	5607	0.04	9
7	5610	0.04	6
7	5613	0.04	3
7	5616	0.04	0
7	5744	0.041	12
7	5747	0.041	9
7	5750	0.041	6
7	5753	0.041	3
7	5756	0.041	0
7	5882	0.042	11
7	5885	0.042	8
7	5888	0.042	5
7	5891	0.042	2
7	5894	0.042	0
7	6024	0.043	12
7	6027	0.043	9
7	6030	0.043	6
7	6033	0.043	3
7	6036	0.043	0
7	6166	0.044	12
7	6169	0.044	9
7	6172	0.044	6
7	6175	0.044	3
7	6178	0.044	0
7	6306	0.045	11
7	6309	0.045	8
7	6312	0.045	5
7	6315	0.045	2
7	6318	0.045	0
7	6450	0.046	12
7	6453	0.046	9
7	6456	0.046	6
7	6459	0.046	3
7	6462	0.046	0
7	6592	0.047	12
7	6595	0.047	9
7	6598	0.047	6
7	6601	0.047	3
7	6604	0.047	0
7	6732	0.048	11
7	6735	0.048	8
7	6738	0.048	5
7	6741	0.048	2
7	6744	0.048	0
7	6872	0.049	12
7	6875	0.049	9
7	6878	0.049	6
7	6881	0.049	3
7	6884	0.049	0
7	7014	0.05	12
7	7017	0.05	9
7	7020	0.05	6
7	7023	0.05	3
7	7026	0.05	0
7	7154	0.051	11
7	7157	0.051	8
7	7160	0.051	5
7	7163	0.051	2
7	7166	0.051	0
7	7298	0.052	12
7	7301	0.052	9
7	7304	0.052	6
7	7307	0.052	3
7	7310	0.052	0
7	7438	0.053	11
7	7441	0.053	8
7	7444	0.053	5
7	7447	0.053	2
7	7450	0.053	0
7	7578	0.054	12
7	7581	0.054	9
7	7584	0.054	6
7	7587	0.054	3
7	7590	0.054	0
7	7720	0.055	12
7	7723	0.055	9
7	7726	0.055	6
7	7729	0.055	3
7	7732	0.055	0
7	7858	0.056	11
7	7861	0.056	8
7	7864	0.056	5
7	7867	0.056	2
7	7870	0.056	0
7	8002	0.057	12
7	8005	0.057	9
7	8008	0.057	6
7	8011	0.057	3
7	8014	0.057	0
7	8144	0.058	12
7	8147	0.058	9
7	8150	0.058	6
7	8153	0.058	3
7	8156	0.058	0
7	8284	0.059	11
7	8287	0.059	8
7	8290	0.059	5
7	8293	0.059	2
7	8296	0.059	0
7	8426	0.06	12
7	8429	0.06	9
7	8432	0.06	6
7	8435	0.06	3
7	8438	0.06	0
7	8568	0.061	12
7	8571	0.061	9
7	8574	0.061	6
7	8577	0.061	3
7	8580	0.061	0
7	8708	0.062	11
7	8711	0.062	8
7	8714	0.062	5
7	8717	0.062	2
7	8720	0.062	0
7	8850	0.063	12
7	8853	0.063	9
7	8856	0.063	6
7	8859	0.063	3
7	8862	0.063	0
7	8992	0.064	12
7	8995	0.064	9
7	8998	0.064	6
7	9001	0.064	3
7	9004	0.064	0
7	9132	0.065	11
7	9135	0.065	8
7	9138	0.065	5
7	9141	0.065	2
7	9144	0.065	0
7	9274	0.066	12
7	9277	0.066	9
7	9280	0.066	6
7	9283	0.066	3
7	9286	0.066	0
7	9412	0.067	11
7	9415	0.067	8
7	9418	0.067	5
7	9421	0.067	2
7	9424	0.067	0
7	9556	0.068	12
7	9559	0.068	9
7	9562	0.068	6
7	9565	0.068	3
7	9568	0.068	0
7	9696	0.069	12
7	9699	0.069	9
7	9702	0.069	6
7	9705	0.069	3
7	9708	0.069	0
7	9836	0.07	11
7	9839	0.07	8
7	9842	0.07	5
7	9845	0.07	2
7	9848	0.07	0
7	9978	0.071	12
7	9981	0.071	9
7	9984	0.071	6
7	9987	0.071	3
7	9990	0.071	0
8	108	0.001	0.000932999554
8	109	0.001	0.000932682611
8	110	0.001	0.000865365222
8	111	0.001	0.000931698217
8	112	0.001	0.000863396434
8	113	0.001	0.000795094651
8	114	0.001	0.000865999108
8	115	0.001	0.000798047833
8	116	0.001	0.000730730444
8	117	0.001	0.000726792868
8	118	0.001	0.000658491085
8	119	0.001	0.000590189302
8	120	0.001	0.000798998662
8	121	0.001	0.000663413055
8	122	0.001	0.000596095666
8	123	0.001	0.000521887519
8	124	0.001	0.000453585736
8	125	0.001	0.000385283953
8	126	0.001	0.000731998216
8	127	0.001	0.000528778277
8	128	0.001	0.000461460888
8	129	0.001	0.00031698217
8	130	0.001	0.000248680387
8	131	0.001	0.000180378604
8	132	0.001	0.00066499777
8	133	0.001	0.000394143499
8	134	0.001	0.00032682611
8	135	0.001	0.000112076821
8	136	0.001	4.3775038e-005
8	137	0.001	0.000597997324
8	250	0.002	0.001259508721
8	251	0.002	0.001192191332
8	252	0.002	0.000975473255
8	253	0.002	0.000907171472
8	254	0.002	0.000838869689
8	255	0.002	0.001530996878
8	256	0.002	0.001124873943
8	257	0.002	0.001057556554
8	258	0.002	0.000770567906
8	259	0.002	0.000702266123
8	260	0.002	0.00063396434
8	261	0.002	0.001463996432
8	262	0.002	0.000990239165
8	263	0.002	0.000922921776
8	264	0.002	0.000565662557
8	265	0.002	0.000497360774
8	266	0.002	0.000429058991
8	267	0.002	0.001396995986
8	268	0.002	0.000855604387
8	269	0.002	0.000788286998
8	270	0.002	0.000360757208
8	271	0.002	0.000292455425
8	272	0.002	0.000224153642
8	273	0.002	0.00132999554
8	274	0.002	0.000720969609
8	275	0.002	0.00065365222
8	276	0.002	0.000155851859
8	277	0.002	8.7550076e-005
8	278	0.002	1.9248293e-005
8	279	0.002	0.001262995094
8	391	0.003	0.001586334831
8	392	0.003	0.001519017442
8	393	0.003	0.00095094651
8	394	0.003	0.000882644727
8	395	0.003	0.000814342944
8	396	0.003	0.002195994648
8	397	0.003	0.001451700053
8	398	0.003	0.001384382664
8	399	0.003	0.000746041161
8	400	0.003	0.000677739378
8	401	0.003	0.000609437595
8	402	0.003	0.002128994202
8	403	0.003	0.001317065275
8	404	0.003	0.001249747886
8	405	0.003	0.000541135812
8	406	0.003	0.000472834029
8	407	0.003	0.000404532246
8	408	0.003	0.002061993756
8	409	0.003	0.001182430497
8	410	0.003	0.001115113108
8	411	0.003	0.000336230463
8	412	0.003	0.00026792868
8	413	0.003	0.000199626897
8	414	0.003	0.00199499331
8	415	0.003	0.001047795719
8	416	0.003	0.00098047833
8	417	0.003	0.000131325114
8	418	0.003	6.3023331e-005
8	419	0.003	0.001927992864
8	420	0.003	0.000913160941
8	533	0.004	0.000994721548
8	534	0.004	0.000926419765
8	535	0.004	0.000858117982
8	536	0.004	0.002860992418
8	537	0.004	0.001845843552
8	538	0.004	0.001778526163
8	539	0.004	0.000789816199
8	540	0.004	0.000721514416
8	541	0.004	0.000653212633
8	542	0.004	0.002793991972
8	543	0.004	0.001711208774
8	544	0.004	0.001643891385
8	545	0.004	0.00058491085
8	546	0.004	0.000516609067
8	547	0.004	0.000448307284
8	548	0.004	0.002726991526
8	549	0.004	0.001576573996
8	550	0.004	0.001509256607
8	551	0.004	0.000380005501
8	552	0.004	0.000311703718
8	553	0.004	0.000243401935
8	554	0.004	0.00265999108
8	555	0.004	0.001441939218
8	556	0.004	0.001374621829
8	557	0.004	0.000175100152
8	558	0.004	0.000106798369
8	559	0.004	3.8496586e-005
8	560	0.004	0.002592990634
8	561	0.004	0.00130730444
8	562	0.004	0.001239987051
8	675	0.005	0.000970194803
8	676	0.005	0.00090189302
8	677	0.005	0.000833591237
8	678	0.005	0.003525990188
8	679	0.005	0.002172669662
8	680	0.005	0.002105352273
8	681	0.005	0.000765289454
8	682	0.005	0.000696987671
8	683	0.005	0.000628685888
8	684	0.005	0.003458989742
8	685	0.005	0.002038034884
8	686	0.005	0.001970717495
8	687	0.005	0.000560384105
8	688	0.005	0.000492082322
8	689	0.005	0.000423780539
8	690	0.005	0.003391989296
8	691	0.005	0.001903400106
8	692	0.005	0.001836082717
8	693	0.005	0.000355478756
8	694	0.005	0.000287176973
8	695	0.005	0.00021887519
8	696	0.005	0.00332498885
8	697	0.005	0.001768765328
8	698	0.005	0.001701447939
8	699	0.005	0.000150573407
8	700	0.005	8.2271624e-005
8	701	0.005	1.3969841e-005
8	702	0.005	0.003257988404
8	703	0.005	0.00163413055
8	704	0.005	0.001566813161
8	816	0.006	0.000945668058
8	817	0.006	0.000877366275
8	818	0.006	0.000809064492
8	819	0.006	0.004190987958
8	820	0.006	0.002499495772
8	821	0.006	0.002432178383
8	822	0.006	0.000740762709
8	823	0.006	0.000672460926
8	824	0.006	0.000604159143
8	825	0.006	0.004123987512
8	826	0.006	0.002364860994
8	827	0.006	0.002297543605
8	828	0.006	0.00053585736
8	829	0.006	0.000467555577
8	830	0.006	0.000399253794
8	831	0.006	0.004056987066
8	832	0.006	0.002230226216
8	833	0.006	0.002162908827
8	834	0.006	0.000330952011
8	835	0.006	0.000262650228
8	836	0.006	0.000194348445
8	837	0.006	0.00398998662
8	838	0.006	0.002095591438
8	839	0.006	0.002028274049
8	840	0.006	0.000126046662
8	841	0.006	5.7744879e-005
8	842	0.006	0.003922986174
8	843	0.006	0.00196095666
8	844	0.006	0.001893639271
8	845	0.006	0.003855985728
8	956	0.007	0.002826321882
8	957	0.007	0.002759004493
8	958	0.007	0.000989443096
8	959	0.007	0.000921141313
8	960	0.007	0.00085283953
8	961	0.007	0.004788985282
8	962	0.007	0.002691687104
8	963	0.007	0.002624369715
8	964	0.007	0.000784537747
8	965	0.007	0.000716235964
8	966	0.007	0.000647934181
8	967	0.007	0.004721984836
8	968	0.007	0.002557052326
8	969	0.007	0.002489734937
8	970	0.007	0.000579632398
8	971	0.007	0.000511330615
8	972	0.007	0.000443028832
8	973	0.007	0.00465498439
8	974	0.007	0.002422417548
8	975	0.007	0.002355100159
8	976	0.007	0.000374727049
8	977	0.007	0.000306425266
8	978	0.007	0.000238123483
8	979	0.007	0.004587983944
8	980	0.007	0.00228778277
8	981	0.007	0.002220465381
8	982	0.007	0.0001698217
8	983	0.007	0.000101519917
8	984	0.007	3.3218134e-005
8	985	0.007	0.004520983498
8	1098	0.008	0.003153147992
8	1099	0.008	0.003085830603
8	1100	0.008	0.000964916351
8	1101	0.008	0.000896614568
8	1102	0.008	0.000828312785
8	1103	0.008	0.005453983052
8	1104	0.008	0.003018513214
8	1105	0.008	0.002951195825
8	1106	0.008	0.000760011002
8	1107	0.008	0.000691709219
8	1108	0.008	0.000623407436
8	1109	0.008	0.005386982606
8	1110	0.008	0.002883878436
8	1111	0.008	0.002816561047
8	1112	0.008	0.000555105653
8	1113	0.008	0.00048680387
8	1114	0.008	0.000418502087
8	1115	0.008	0.00531998216
8	1116	0.008	0.002749243658
8	1117	0.008	0.002681926269
8	1118	0.008	0.000350200304
8	1119	0.008	0.000281898521
8	1120	0.008	0.000213596738
8	1121	0.008	0.005252981714
8	1122	0.008	0.00261460888
8	1123	0.008	0.002547291491
8	1124	0.008	0.000145294955
8	1125	0.008	7.6993172e-005
8	1126	0.008	8.691389e-006
8	1127	0.008	0.005185981268
8	1239	0.009	0.003479974102
8	1240	0.009	0.003412656713
8	1241	0.009	0.000940389606
8	1242	0.009	0.000872087823
8	1243	0.009	0.00080378604
8	1244	0.009	0.006118980822
8	1245	0.009	0.003345339324
8	1246	0.009	0.003278021935
8	1247	0.009	0.000735484257
8	1248	0.009	0.000667182474
8	1249	0.009	0.000598880691
8	1250	0.009	0.006051980376
8	1251	0.009	0.003210704546
8	1252	0.009	0.003143387157
8	1253	0.009	0.000530578908
8	1254	0.009	0.000462277125
8	1255	0.009	0.000393975342
8	1256	0.009	0.00598497993
8	1257	0.009	0.003076069768
8	1258	0.009	0.003008752379
8	1259	0.009	0.000325673559
8	1260	0.009	0.000257371776
8	1261	0.009	0.000189069993
8	1262	0.009	0.005917979484
8	1263	0.009	0.00294143499
8	1264	0.009	0.002874117601
8	1265	0.009	0.00012076821
8	1266	0.009	5.2466427e-005
8	1267	0.009	0.005850979038
8	1268	0.009	0.002806800212
8	1381	0.01	0.000984164644
8	1382	0.01	0.000915862861
8	1383	0.01	0.000847561078
8	1384	0.01	0.006783978592
8	1385	0.01	0.003739482823
8	1386	0.01	0.003672165434
8	1387	0.01	0.000779259295
8	1388	0.01	0.000710957512
8	1389	0.01	0.000642655729
8	1390	0.01	0.006716978146
8	1391	0.01	0.003604848045
8	1392	0.01	0.003537530656
8	1393	0.01	0.000574353946
8	1394	0.01	0.000506052163
8	1395	0.01	0.00043775038
8	1396	0.01	0.0066499777
8	1397	0.01	0.003470213267
8	1398	0.01	0.003402895878
8	1399	0.01	0.000369448597
8	1400	0.01	0.000301146814
8	1401	0.01	0.000232845031
8	1402	0.01	0.006582977254
8	1403	0.01	0.003335578489
8	1404	0.01	0.0032682611
8	1405	0.01	0.000164543248
8	1406	0.01	9.6241465e-005
8	1407	0.01	2.7939682e-005
8	1408	0.01	0.006515976808
8	1409	0.01	0.003200943711
8	1410	0.01	0.003133626322
8	1523	0.011	0.000959637899
8	1524	0.011	0.000891336116
8	1525	0.011	0.000823034333
8	1526	0.011	0.007448976362
8	1527	0.011	0.004066308933
8	1528	0.011	0.003998991544
8	1529	0.011	0.00075473255
8	1530	0.011	0.000686430767
8	1531	0.011	0.000618128984
8	1532	0.011	0.007381975916
8	1533	0.011	0.003931674155
8	1534	0.011	0.003864356766
8	1535	0.011	0.000549827201
8	1536	0.011	0.000481525418
8	1537	0.011	0.000413223635
8	1538	0.011	0.00731497547
8	1539	0.011	0.003797039377
8	1540	0.011	0.003729721988
8	1541	0.011	0.000344921852
8	1542	0.011	0.000276620069
8	1543	0.011	0.000208318286
8	1544	0.011	0.007247975024
8	1545	0.011	0.003662404599
8	1546	0.011	0.00359508721
8	1547	0.011	0.000140016503
8	1548	0.011	7.171472e-005
8	1549	0.011	3.412937e-006
8	1550	0.011	0.007180974578
8	1551	0.011	0.003527769821
8	1552	0.011	0.003460452432
8	1664	0.012	0.000935111154
8	1665	0.012	0.000866809371
8	1666	0.012	0.000798507588
8	1667	0.012	0.008113974132
8	1668	0.012	0.004393135043
8	1669	0.012	0.004325817654
8	1670	0.012	0.000730205805
8	1671	0.012	0.000661904022
8	1672	0.012	0.000593602239
8	1673	0.012	0.008046973686
8	1674	0.012	0.004258500265
8	1675	0.012	0.004191182876
8	1676	0.012	0.000525300456
8	1677	0.012	0.000456998673
8	1678	0.012	0.00038869689
8	1679	0.012	0.00797997324
8	1680	0.012	0.004123865487
8	1681	0.012	0.004056548098
8	1682	0.012	0.000320395107
8	1683	0.012	0.000252093324
8	1684	0.012	0.000183791541
8	1685	0.012	0.007912972794
8	1686	0.012	0.003989230709
8	1687	0.012	0.00392191332
8	1688	0.012	0.000115489758
8	1689	0.012	4.7187975e-005
8	1690	0.012	0.007845972348
8	1691	0.012	0.003854595931
8	1692	0.012	0.003787278542
8	1693	0.012	0.007778971902
8	1806	0.013	0.004719961153
8	1807	0.013	0.004652643764
8	1808	0.013	0.000978886192
8	1809	0.013	0.000910584409
8	1810	0.013	0.000842282626
8	1811	0.013	0.008711971456
8	1812	0.013	0.004585326375
8	1813	0.013	0.004518008986
8	1814	0.013	0.000773980843
8	1815	0.013	0.00070567906
8	1816	0.013	0.000637377277
8	1817	0.013	0.00864497101
8	1818	0.013	0.004450691597
8	1819	0.013	0.004383374208
8	1820	0.013	0.000569075494
8	1821	0.013	0.000500773711
8	1822	0.013	0.000432471928
8	1823	0.013	0.008577970564
8	1824	0.013	0.004316056819
8	1825	0.013	0.00424873943
8	1826	0.013	0.000364170145
8	1827	0.013	0.000295868362
8	1828	0.013	0.000227566579
8	1829	0.013	0.008510970118
8	1830	0.013	0.004181422041
8	1831	0.013	0.004114104652
8	1832	0.013	0.000159264796
8	1833	0.013	9.0963013e-005
8	1834	0.013	2.266123e-005
8	1835	0.013	0.008443969672
8	1943	0.014	0.005046787263
8	1944	0.014	0.004979469874
8	1945	0.014	0.000954359447
8	1946	0.014	0.000886057664
8	1947	0.014	0.000817755881
8	1948	0.014	0.009376969226
8	1949	0.014	0.004912152485
8	1950	0.014	0.004844835096
8	1951	0.014	0.000749454098
8	1952	0.014	0.000681152315
8	1953	0.014	0.000612850532
8	1954	0.014	0.00930996878
8	1955	0.014	0.004777517707
8	1956	0.014	0.004710200318
8	1957	0.014	0.000544548749
8	1958	0.014	0.000476246966
8	1959	0.014	0.000407945183
8	1960	0.014	0.009242968334
8	1961	0.014	0.004642882929
8	1962	0.014	0.00457556554
8	1963	0.014	0.0003396434
8	1964	0.014	0.000271341617
8	1965	0.014	0.000203039834
8	1966	0.014	0.009175967888
8	1967	0.014	0.004508248151
8	1968	0.014	0.004440930762
8	1969	0.014	0.000134738051
8	1970	0.014	6.6436268e-005
8	1971	0.014	0.009108967442
8	1972	0.014	0.004373613373
8	2085	0.015	0.000998134485
8	2086	0.015	0.000929832702
8	2087	0.015	0.000861530919
8	2088	0.015	0.010041966996
8	2089	0.015	0.005306295984
8	2090	0.015	0.005238978595
8	2091	0.015	0.000793229136
8	2092	0.015	0.000724927353
8	2093	0.015	0.00065662557
8	2094	0.015	0.00997496655
8	2095	0.015	0.005171661206
8	2096	0.015	0.005104343817
8	2097	0.015	0.000588323787
8	2098	0.015	0.000520022004
8	2099	0.015	0.000451720221
8	2100	0.015	0.009907966104
8	2101	0.015	0.005037026428
8	2102	0.015	0.004969709039
8	2103	0.015	0.000383418438
8	2104	0.015	0.000315116655
8	2105	0.015	0.000246814872
8	2106	0.015	0.009840965658
8	2107	0.015	0.00490239165
8	2108	0.015	0.004835074261
8	2109	0.015	0.000178513089
8	2110	0.015	0.000110211306
8	2111	0.015	4.1909523e-005
8	2112	0.015	0.009773965212
8	2113	0.015	0.004767756872
8	2114	0.015	0.004700439483
8	2227	0.016	0.00097360774
8	2228	0.016	0.000905305957
8	2229	0.016	0.000837004174
8	2230	0.016	0.010706964766
8	2231	0.016	0.005633122094
8	2232	0.016	0.005565804705
8	2233	0.016	0.000768702391
8	2234	0.016	0.000700400608
8	2235	0.016	0.000632098825
8	2236	0.016	0.01063996432
8	2237	0.016	0.005498487316
8	2238	0.016	0.005431169927
8	2239	0.016	0.000563797042
8	2240	0.016	0.000495495259
8	2241	0.016	0.000427193476
8	2242	0.016	0.010572963874
8	2243	0.016	0.005363852538
8	2244	0.016	0.005296535149
8	2245	0.016	0.000358891693
8	2246	0.016	0.00029058991
8	2247	0.016	0.000222288127
8	2248	0.016	0.010505963428
8	2249	0.016	0.00522921776
8	2250	0.016	0.005161900371
8	2251	0.016	0.000153986344
8	2252	0.016	8.5684561e-005
8	2253	0.016	1.7382778e-005
8	2254	0.016	0.010438962982
8	2255	0.016	0.005094582982
8	2256	0.016	0.005027265593
8	2368	0.017	0.000949080995
8	2369	0.017	0.000880779212
8	2370	0.017	0.000812477429
8	2371	0.017	0.011371962536
8	2372	0.017	0.005959948204
8	2373	0.017	0.005892630815
8	2374	0.017	0.000744175646
8	2375	0.017	0.000675873863
8	2376	0.017	0.00060757208
8	2377	0.017	0.01130496209
8	2378	0.017	0.005825313426
8	2379	0.017	0.005757996037
8	2380	0.017	0.000539270297
8	2381	0.017	0.000470968514
8	2382	0.017	0.000402666731
8	2383	0.017	0.011237961644
8	2384	0.017	0.005690678648
8	2385	0.017	0.005623361259
8	2386	0.017	0.000334364948
8	2387	0.017	0.000266063165
8	2388	0.017	0.000197761382
8	2389	0.017	0.011170961198
8	2390	0.017	0.00555604387
8	2391	0.017	0.005488726481
8	2392	0.017	0.000129459599
8	2393	0.017	6.1157816e-005
8	2394	0.017	0.011103960752
8	2395	0.017	0.005421409092
8	2396	0.017	0.005354091703
8	2397	0.017	0.011036960306
8	2510	0.018	0.006286774314
8	2511	0.018	0.006219456925
8	2512	0.018	0.000992856033
8	2513	0.018	0.00092455425
8	2514	0.018	0.000856252467
8	2515	0.018	0.01196995986
8	2516	0.018	0.006152139536
8	2517	0.018	0.006084822147
8	2518	0.018	0.000787950684
8	2519	0.018	0.000719648901
8	2520	0.018	0.000651347118
8	2521	0.018	0.011902959414
8	2522	0.018	0.006017504758
8	2523	0.018	0.005950187369
8	2524	0.018	0.000583045335
8	2525	0.018	0.000514743552
8	2526	0.018	0.000446441769
8	2527	0.018	0.011835958968
8	2528	0.018	0.00588286998
8	2529	0.018	0.005815552591
8	2530	0.018	0.000378139986
8	2531	0.018	0.000309838203
8	2532	0.018	0.00024153642
8	2533	0.018	0.011768958522
8	2534	0.018	0.005748235202
8	2535	0.018	0.005680917813
8	2536	0.018	0.000173234637
8	2537	0.018	0.000104932854
8	2538	0.018	3.6631071e-005
8	2539	0.018	0.011701958076
8	2652	0.019	0.006613600424
8	2653	0.019	0.006546283035
8	2654	0.019	0.000968329288
8	2655	0.019	0.000900027505
8	2656	0.019	0.000831725722
8	2657	0.019	0.01263495763
8	2658	0.019	0.006478965646
8	2659	0.019	0.006411648257
8	2660	0.019	0.000763423939
8	2661	0.019	0.000695122156
8	2662	0.019	0.000626820373
8	2663	0.019	0.012567957184
8	2664	0.019	0.006344330868
8	2665	0.019	0.006277013479
8	2666	0.019	0.00055851859
8	2667	0.019	0.000490216807
8	2668	0.019	0.000421915024
8	2669	0.019	0.012500956738
8	2670	0.019	0.00620969609
8	2671	0.019	0.006142378701
8	2672	0.019	0.000353613241
8	2673	0.019	0.000285311458
8	2674	0.019	0.000217009675
8	2675	0.019	0.012433956292
8	2676	0.019	0.006075061312
8	2677	0.019	0.006007743923
8	2678	0.019	0.000148707892
8	2679	0.019	8.0406109e-005
8	2680	0.019	1.2104326e-005
8	2681	0.019	0.012366955846
8	2793	0.02	0.006940426534
8	2794	0.02	0.006873109145
8	2795	0.02	0.000943802543
8	2796	0.02	0.00087550076
8	2797	0.02	0.000807198977
8	2798	0.02	0.0132999554
8	2799	0.02	0.006805791756
8	2800	0.02	0.006738474367
8	2801	0.02	0.000738897194
8	2802	0.02	0.000670595411
8	2803	0.02	0.000602293628
8	2804	0.02	0.013232954954
8	2805	0.02	0.006671156978
8	2806	0.02	0.006603839589
8	2807	0.02	0.000533991845
8	2808	0.02	0.000465690062
8	2809	0.02	0.000397388279
8	2810	0.02	0.013165954508
8	2811	0.02	0.0065365222
8	2812	0.02	0.006469204811
8	2813	0.02	0.000329086496
8	2814	0.02	0.000260784713
8	2815	0.02	0.00019248293
8	2816	0.02	0.013098954062
8	2817	0.02	0.006401887422
8	2818	0.02	0.006334570033
8	2819	0.02	0.000124181147
8	2820	0.02	5.5879364e-005
8	2821	0.02	0.013031953616
8	2822	0.02	0.006267252644
8	2933	0.021	0.000987577581
8	2934	0.021	0.000919275798
8	2935	0.021	0.000850974015
8	2936	0.021	0.01396495317
8	2937	0.021	0.007199935255
8	2938	0.021	0.007132617866
8	2939	0.021	0.000782672232
8	2940	0.021	0.000714370449
8	2941	0.021	0.000646068666
8	2942	0.021	0.013897952724
8	2943	0.021	0.007065300477
8	2944	0.021	0.006997983088
8	2945	0.021	0.000577766883
8	2946	0.021	0.0005094651
8	2947	0.021	0.000441163317
8	2948	0.021	0.013830952278
8	2949	0.021	0.006930665699
8	2950	0.021	0.00686334831
8	2951	0.021	0.000372861534
8	2952	0.021	0.000304559751
8	2953	0.021	0.000236257968
8	2954	0.021	0.013763951832
8	2955	0.021	0.006796030921
8	2956	0.021	0.006728713532
8	2957	0.021	0.000167956185
8	2958	0.021	9.9654402e-005
8	2959	0.021	3.1352619e-005
8	2960	0.021	0.013696951386
8	2961	0.021	0.006661396143
8	2962	0.021	0.006594078754
8	3075	0.022	0.000963050836
8	3076	0.022	0.000894749053
8	3077	0.022	0.00082644727
8	3078	0.022	0.01462995094
8	3079	0.022	0.007526761365
8	3080	0.022	0.007459443976
8	3081	0.022	0.000758145487
8	3082	0.022	0.000689843704
8	3083	0.022	0.000621541921
8	3084	0.022	0.014562950494
8	3085	0.022	0.007392126587
8	3086	0.022	0.007324809198
8	3087	0.022	0.000553240138
8	3088	0.022	0.000484938355
8	3089	0.022	0.000416636572
8	3090	0.022	0.014495950048
8	3091	0.022	0.007257491809
8	3092	0.022	0.00719017442
8	3093	0.022	0.000348334789
8	3094	0.022	0.000280033006
8	3095	0.022	0.000211731223
8	3096	0.022	0.014428949602
8	3097	0.022	0.007122857031
8	3098	0.022	0.007055539642
8	3099	0.022	0.00014342944
8	3100	0.022	7.5127657e-005
8	3101	0.022	6.825874e-006
8	3102	0.022	0.014361949156
8	3103	0.022	0.006988222253
8	3104	0.022	0.006920904864
8	3216	0.023	0.000938524091
8	3217	0.023	0.000870222308
8	3218	0.023	0.000801920525
8	3219	0.023	0.01529494871
8	3220	0.023	0.007853587475
8	3221	0.023	0.007786270086
8	3222	0.023	0.000733618742
8	3223	0.023	0.000665316959
8	3224	0.023	0.000597015176
8	3225	0.023	0.015227948264
8	3226	0.023	0.007718952697
8	3227	0.023	0.007651635308
8	3228	0.023	0.000528713393
8	3229	0.023	0.00046041161
8	3230	0.023	0.000392109827
8	3231	0.023	0.015160947818
8	3232	0.023	0.007584317919
8	3233	0.023	0.00751700053
8	3234	0.023	0.000323808044
8	3235	0.023	0.000255506261
8	3236	0.023	0.000187204478
8	3237	0.023	0.015093947372
8	3238	0.023	0.007449683141
8	3239	0.023	0.007382365752
8	3240	0.023	0.000118902695
8	3241	0.023	5.0600912e-005
8	3242	0.023	0.015026946926
8	3243	0.023	0.007315048363
8	3244	0.023	0.007247730974
8	3245	0.023	0.01495994648
8	3358	0.024	0.008180413585
8	3359	0.024	0.008113096196
8	3360	0.024	0.000982299129
8	3361	0.024	0.000913997346
8	3362	0.024	0.000845695563
8	3363	0.024	0.015892946034
8	3364	0.024	0.008045778807
8	3365	0.024	0.007978461418
8	3366	0.024	0.00077739378
8	3367	0.024	0.000709091997
8	3368	0.024	0.000640790214
8	3369	0.024	0.015825945588
8	3370	0.024	0.007911144029
8	3371	0.024	0.00784382664
8	3372	0.024	0.000572488431
8	3373	0.024	0.000504186648
8	3374	0.024	0.000435884865
8	3375	0.024	0.015758945142
8	3376	0.024	0.007776509251
8	3377	0.024	0.007709191862
8	3378	0.024	0.000367583082
8	3379	0.024	0.000299281299
8	3380	0.024	0.000230979516
8	3381	0.024	0.015691944696
8	3382	0.024	0.007641874473
8	3383	0.024	0.007574557084
8	3384	0.024	0.000162677733
8	3385	0.024	9.437595e-005
8	3386	0.024	2.6074167e-005
8	3387	0.024	0.01562494425
8	3500	0.025	0.008507239695
8	3501	0.025	0.008439922306
8	3502	0.025	0.000957772384
8	3503	0.025	0.000889470601
8	3504	0.025	0.000821168818
8	3505	0.025	0.016557943804
8	3506	0.025	0.008372604917
8	3507	0.025	0.008305287528
8	3508	0.025	0.000752867035
8	3509	0.025	0.000684565252
8	3510	0.025	0.000616263469
8	3511	0.025	0.016490943358
8	3512	0.025	0.008237970139
8	3513	0.025	0.00817065275
8	3514	0.025	0.000547961686
8	3515	0.025	0.000479659903
8	3516	0.025	0.00041135812
8	3517	0.025	0.016423942912
8	3518	0.025	0.008103335361
8	3519	0.025	0.008036017972
8	3520	0.025	0.000343056337
8	3521	0.025	0.000274754554
8	3522	0.025	0.000206452771
8	3523	0.025	0.016356942466
8	3524	0.025	0.007968700583
8	3525	0.025	0.007901383194
8	3526	0.025	0.000138150988
8	3527	0.025	6.9849205e-005
8	3528	0.025	1.547422e-006
8	3529	0.025	0.01628994202
8	3641	0.026	0.008834065805
8	3642	0.026	0.008766748416
8	3643	0.026	0.000933245639
8	3644	0.026	0.000864943856
8	3645	0.026	0.000796642073
8	3646	0.026	0.017222941574
8	3647	0.026	0.008699431027
8	3648	0.026	0.008632113638
8	3649	0.026	0.00072834029
8	3650	0.026	0.000660038507
8	3651	0.026	0.000591736724
8	3652	0.026	0.017155941128
8	3653	0.026	0.008564796249
8	3654	0.026	0.00849747886
8	3655	0.026	0.000523434941
8	3656	0.026	0.000455133158
8	3657	0.026	0.000386831375
8	3658	0.026	0.017088940682
8	3659	0.026	0.008430161471
8	3660	0.026	0.008362844082
8	3661	0.026	0.000318529592
8	3662	0.026	0.000250227809
8	3663	0.026	0.000181926026
8	3664	0.026	0.017021940236
8	3665	0.026	0.008295526693
8	3666	0.026	0.008228209304
8	3667	0.026	0.000113624243
8	3668	0.026	4.532246e-005
8	3669	0.026	0.01695493979
8	3670	0.026	0.008160891915
8	3781	0.027	0.000977020677
8	3782	0.027	0.000908718894
8	3783	0.027	0.000840417111
8	3784	0.027	0.017887939344
8	3785	0.027	0.009093574526
8	3786	0.027	0.009026257137
8	3787	0.027	0.000772115328
8	3788	0.027	0.000703813545
8	3789	0.027	0.000635511762
8	3790	0.027	0.017820938898
8	3791	0.027	0.008958939748
8	3792	0.027	0.008891622359
8	3793	0.027	0.000567209979
8	3794	0.027	0.000498908196
8	3795	0.027	0.000430606413
8	3796	0.027	0.017753938452
8	3797	0.027	0.00882430497
8	3798	0.027	0.008756987581
8	3799	0.027	0.00036230463
8	3800	0.027	0.000294002847
8	3801	0.027	0.000225701064
8	3802	0.027	0.017686938006
8	3803	0.027	0.008689670192
8	3804	0.027	0.008622352803
8	3805	0.027	0.000157399281
8	3806	0.027	8.9097498e-005
8	3807	0.027	2.0795715e-005
8	3808	0.027	0.01761993756
8	3809	0.027	0.008555035414
8	3810	0.027	0.008487718025
8	3920	0.028	0.000952493932
8	3921	0.028	0.000884192149
8	3922	0.028	0.000815890366
8	3923	0.028	0.018552937114
8	3924	0.028	0.009420400636
8	3925	0.028	0.009353083247
8	3926	0.028	0.000747588583
8	3927	0.028	0.0006792868
8	3928	0.028	0.000610985017
8	3929	0.028	0.018485936668
8	3930	0.028	0.009285765858
8	3931	0.028	0.009218448469
8	3932	0.028	0.000542683234
8	3933	0.028	0.000474381451
8	3934	0.028	0.000406079668
8	3935	0.028	0.018418936222
8	3936	0.028	0.00915113108
8	3937	0.028	0.009083813691
8	3938	0.028	0.000337777885
8	3939	0.028	0.000269476102
8	3940	0.028	0.000201174319
8	3941	0.028	0.018351935776
8	3942	0.028	0.009016496302
8	3943	0.028	0.008949178913
8	3944	0.028	0.000132872536
8	3945	0.028	6.4570753e-005
8	3946	0.028	0.01828493533
8	3947	0.028	0.008881861524
8	3948	0.028	0.008814544135
8	3949	0.028	0.018217934884
8	4062	0.029	0.009747226746
8	4063	0.029	0.009679909357
8	4064	0.029	0.00099626897
8	4065	0.029	0.000927967187
8	4066	0.029	0.000859665404
8	4067	0.029	0.019150934438
8	4068	0.029	0.009612591968
8	4069	0.029	0.009545274579
8	4070	0.029	0.000791363621
8	4071	0.029	0.000723061838
8	4072	0.029	0.000654760055
8	4073	0.029	0.019083933992
8	4074	0.029	0.00947795719
8	4075	0.029	0.009410639801
8	4076	0.029	0.000586458272
8	4077	0.029	0.000518156489
8	4078	0.029	0.000449854706
8	4079	0.029	0.019016933546
8	4080	0.029	0.009343322412
8	4081	0.029	0.009276005023
8	4082	0.029	0.000381552923
8	4083	0.029	0.00031325114
8	4084	0.029	0.000244949357
8	4085	0.029	0.0189499331
8	4086	0.029	0.009208687634
8	4087	0.029	0.009141370245
8	4088	0.029	0.000176647574
8	4089	0.029	0.000108345791
8	4090	0.029	4.0044008e-005
8	4091	0.029	0.018882932654
8	4204	0.03	0.010074052856
8	4205	0.03	0.010006735467
8	4206	0.03	0.000971742225
8	4207	0.03	0.000903440442
8	4208	0.03	0.000835138659
8	4209	0.03	0.019815932208
8	4210	0.03	0.009939418078
8	4211	0.03	0.009872100689
8	4212	0.03	0.000766836876
8	4213	0.03	0.000698535093
8	4214	0.03	0.00063023331
8	4215	0.03	0.019748931762
8	4216	0.03	0.0098047833
8	4217	0.03	0.009737465911
8	4218	0.03	0.000561931527
8	4219	0.03	0.000493629744
8	4220	0.03	0.000425327961
8	4221	0.03	0.019681931316
8	4222	0.03	0.009670148522
8	4223	0.03	0.009602831133
8	4224	0.03	0.000357026178
8	4225	0.03	0.000288724395
8	4226	0.03	0.000220422612
8	4227	0.03	0.01961493087
8	4228	0.03	0.009535513744
8	4229	0.03	0.009468196355
8	4230	0.03	0.000152120829
8	4231	0.03	8.3819046e-005
8	4232	0.03	1.5517263e-005
8	4233	0.03	0.019547930424
8	4345	0.031	0.010400878966
8	4346	0.031	0.010333561577
8	4347	0.031	0.00094721548
8	4348	0.031	0.000878913697
8	4349	0.031	0.000810611914
8	4350	0.031	0.020480929978
8	4351	0.031	0.010266244188
8	4352	0.031	0.010198926799
8	4353	0.031	0.000742310131
8	4354	0.031	0.000674008348
8	4355	0.031	0.000605706565
8	4356	0.031	0.020413929532
8	4357	0.031	0.01013160941
8	4358	0.031	0.010064292021
8	4359	0.031	0.000537404782
8	4360	0.031	0.000469102999
8	4361	0.031	0.000400801216
8	4362	0.031	0.020346929086
8	4363	0.031	0.009996974632
8	4364	0.031	0.009929657243
8	4365	0.031	0.000332499433
8	4366	0.031	0.00026419765
8	4367	0.031	0.000195895867
8	4368	0.031	0.02027992864
8	4369	0.031	0.009862339854
8	4370	0.031	0.009795022465
8	4371	0.031	0.000127594084
8	4372	0.031	5.9292301e-005
8	4373	0.031	0.020212928194
8	4374	0.031	0.009727705076
8	4487	0.032	0.000990990518
8	4488	0.032	0.000922688735
8	4489	0.032	0.000854386952
8	4490	0.032	0.021145927748
8	4491	0.032	0.010660387687
8	4492	0.032	0.010593070298
8	4493	0.032	0.000786085169
8	4494	0.032	0.000717783386
8	4495	0.032	0.000649481603
8	4496	0.032	0.021078927302
8	4497	0.032	0.010525752909
8	4498	0.032	0.01045843552
8	4499	0.032	0.00058117982
8	4500	0.032	0.000512878037
8	4501	0.032	0.000444576254
8	4502	0.032	0.021011926856
8	4503	0.032	0.010391118131
8	4504	0.032	0.010323800742
8	4505	0.032	0.000376274471
8	4506	0.032	0.000307972688
8	4507	0.032	0.000239670905
8	4508	0.032	0.02094492641
8	4509	0.032	0.010256483353
8	4510	0.032	0.010189165964
8	4511	0.032	0.000171369122
8	4512	0.032	0.000103067339
8	4513	0.032	3.4765556e-005
8	4514	0.032	0.020877925964
8	4515	0.032	0.010121848575
8	4516	0.032	0.010054531186
8	4629	0.033	0.000966463773
8	4630	0.033	0.00089816199
8	4631	0.033	0.000829860207
8	4632	0.033	0.021810925518
8	4633	0.033	0.010987213797
8	4634	0.033	0.010919896408
8	4635	0.033	0.000761558424
8	4636	0.033	0.000693256641
8	4637	0.033	0.000624954858
8	4638	0.033	0.021743925072
8	4639	0.033	0.010852579019
8	4640	0.033	0.01078526163
8	4641	0.033	0.000556653075
8	4642	0.033	0.000488351292
8	4643	0.033	0.000420049509
8	4644	0.033	0.021676924626
8	4645	0.033	0.010717944241
8	4646	0.033	0.010650626852
8	4647	0.033	0.000351747726
8	4648	0.033	0.000283445943
8	4649	0.033	0.00021514416
8	4650	0.033	0.02160992418
8	4651	0.033	0.010583309463
8	4652	0.033	0.010515992074
8	4653	0.033	0.000146842377
8	4654	0.033	7.8540594e-005
8	4655	0.033	1.0238811e-005
8	4656	0.033	0.021542923734
8	4657	0.033	0.010448674685
8	4658	0.033	0.010381357296
8	4770	0.034	0.000941937028
8	4771	0.034	0.000873635245
8	4772	0.034	0.000805333462
8	4773	0.034	0.022475923288
8	4774	0.034	0.011314039907
8	4775	0.034	0.011246722518
8	4776	0.034	0.000737031679
8	4777	0.034	0.000668729896
8	4778	0.034	0.000600428113
8	4779	0.034	0.022408922842
8	4780	0.034	0.011179405129
8	4781	0.034	0.01111208774
8	4782	0.034	0.00053212633
8	4783	0.034	0.000463824547
8	4784	0.034	0.000395522764
8	4785	0.034	0.022341922396
8	4786	0.034	0.011044770351
8	4787	0.034	0.010977452962
8	4788	0.034	0.000327220981
8	4789	0.034	0.000258919198
8	4790	0.034	0.000190617415
8	4791	0.034	0.02227492195
8	4792	0.034	0.010910135573
8	4793	0.034	0.010842818184
8	4794	0.034	0.000122315632
8	4795	0.034	5.4013849e-005
8	4796	0.034	0.022207921504
8	4797	0.034	0.010775500795
8	4798	0.034	0.010708183406
8	4799	0.034	0.022140921058
8	4910	0.035	0.011640866017
8	4911	0.035	0.011573548628
8	4912	0.035	0.000985712066
8	4913	0.035	0.000917410283
8	4914	0.035	0.0008491085
8	4915	0.035	0.023073920612
8	4916	0.035	0.011506231239
8	4917	0.035	0.01143891385
8	4918	0.035	0.000780806717
8	4919	0.035	0.000712504934
8	4920	0.035	0.000644203151
8	4921	0.035	0.023006920166
8	4922	0.035	0.011371596461
8	4923	0.035	0.011304279072
8	4924	0.035	0.000575901368
8	4925	0.035	0.000507599585
8	4926	0.035	0.000439297802
8	4927	0.035	0.02293991972
8	4928	0.035	0.011236961683
8	4929	0.035	0.011169644294
8	4930	0.035	0.000370996019
8	4931	0.035	0.000302694236
8	4932	0.035	0.000234392453
8	4933	0.035	0.022872919274
8	4934	0.035	0.011102326905
8	4935	0.035	0.011035009516
8	4936	0.035	0.00016609067
8	4937	0.035	9.7788887e-005
8	4938	0.035	2.9487104e-005
8	4939	0.035	0.022805918828
8	5052	0.036	0.011967692127
8	5053	0.036	0.011900374738
8	5054	0.036	0.000961185321
8	5055	0.036	0.000892883538
8	5056	0.036	0.000824581755
8	5057	0.036	0.023738918382
8	5058	0.036	0.011833057349
8	5059	0.036	0.01176573996
8	5060	0.036	0.000756279972
8	5061	0.036	0.000687978189
8	5062	0.036	0.000619676406
8	5063	0.036	0.023671917936
8	5064	0.036	0.011698422571
8	5065	0.036	0.011631105182
8	5066	0.036	0.000551374623
8	5067	0.036	0.00048307284
8	5068	0.036	0.000414771057
8	5069	0.036	0.02360491749
8	5070	0.036	0.011563787793
8	5071	0.036	0.011496470404
8	5072	0.036	0.000346469274
8	5073	0.036	0.000278167491
8	5074	0.036	0.000209865708
8	5075	0.036	0.023537917044
8	5076	0.036	0.011429153015
8	5077	0.036	0.011361835626
8	5078	0.036	0.000141563925
8	5079	0.036	7.3262142e-005
8	5080	0.036	4.960359e-006
8	5081	0.036	0.023470916598
8	5193	0.037	0.012294518237
8	5194	0.037	0.012227200848
8	5195	0.037	0.000936658576
8	5196	0.037	0.000868356793
8	5197	0.037	0.00080005501
8	5198	0.037	0.024403916152
8	5199	0.037	0.012159883459
8	5200	0.037	0.01209256607
8	5201	0.037	0.000731753227
8	5202	0.037	0.000663451444
8	5203	0.037	0.000595149661
8	5204	0.037	0.024336915706
8	5205	0.037	0.012025248681
8	5206	0.037	0.011957931292
8	5207	0.037	0.000526847878
8	5208	0.037	0.000458546095
8	5209	0.037	0.000390244312
8	5210	0.037	0.02426991526
8	5211	0.037	0.011890613903
8	5212	0.037	0.011823296514
8	5213	0.037	0.000321942529
8	5214	0.037	0.000253640746
8	5215	0.037	0.000185338963
8	5216	0.037	0.024202914814
8	5217	0.037	0.011755979125
8	5218	0.037	0.011688661736
8	5219	0.037	0.00011703718
8	5220	0.037	4.8735397e-005
8	5221	0.037	0.024135914368
8	5222	0.037	0.011621344347
8	5335	0.038	0.000980433614
8	5336	0.038	0.000912131831
8	5337	0.038	0.000843830048
8	5338	0.038	0.025068913922
8	5339	0.038	0.012554026958
8	5340	0.038	0.012486709569
8	5341	0.038	0.000775528265
8	5342	0.038	0.000707226482
8	5343	0.038	0.000638924699
8	5344	0.038	0.025001913476
8	5345	0.038	0.01241939218
8	5346	0.038	0.012352074791
8	5347	0.038	0.000570622916
8	5348	0.038	0.000502321133
8	5349	0.038	0.00043401935
8	5350	0.038	0.02493491303
8	5351	0.038	0.012284757402
8	5352	0.038	0.012217440013
8	5353	0.038	0.000365717567
8	5354	0.038	0.000297415784
8	5355	0.038	0.000229114001
8	5356	0.038	0.024867912584
8	5357	0.038	0.012150122624
8	5358	0.038	0.012082805235
8	5359	0.038	0.000160812218
8	5360	0.038	9.2510435e-005
8	5361	0.038	2.4208652e-005
8	5362	0.038	0.024800912138
8	5363	0.038	0.012015487846
8	5364	0.038	0.011948170457
8	5476	0.039	0.000955906869
8	5477	0.039	0.000887605086
8	5478	0.039	0.000819303303
8	5479	0.039	0.025733911692
8	5480	0.039	0.012880853068
8	5481	0.039	0.012813535679
8	5482	0.039	0.00075100152
8	5483	0.039	0.000682699737
8	5484	0.039	0.000614397954
8	5485	0.039	0.025666911246
8	5486	0.039	0.01274621829
8	5487	0.039	0.012678900901
8	5488	0.039	0.000546096171
8	5489	0.039	0.000477794388
8	5490	0.039	0.000409492605
8	5491	0.039	0.0255999108
8	5492	0.039	0.012611583512
8	5493	0.039	0.012544266123
8	5494	0.039	0.000341190822
8	5495	0.039	0.000272889039
8	5496	0.039	0.000204587256
8	5497	0.039	0.025532910354
8	5498	0.039	0.012476948734
8	5499	0.039	0.012409631345
8	5500	0.039	0.000136285473
8	5501	0.039	6.798369e-005
8	5502	0.039	0.025465909908
8	5503	0.039	0.012342313956
8	5504	0.039	0.012274996567
8	5505	0.039	0.025398909462
8	5618	0.04	0.013207679178
8	5619	0.04	0.013140361789
8	5620	0.04	0.000999681907
8	5621	0.04	0.000931380124
8	5622	0.04	0.000863078341
8	5623	0.04	0.026331909016
8	5624	0.04	0.0130730444
8	5625	0.04	0.013005727011
8	5626	0.04	0.000794776558
8	5627	0.04	0.000726474775
8	5628	0.04	0.000658172992
8	5629	0.04	0.02626490857
8	5630	0.04	0.012938409622
8	5631	0.04	0.012871092233
8	5632	0.04	0.000589871209
8	5633	0.04	0.000521569426
8	5634	0.04	0.000453267643
8	5635	0.04	0.026197908124
8	5636	0.04	0.012803774844
8	5637	0.04	0.012736457455
8	5638	0.04	0.00038496586
8	5639	0.04	0.000316664077
8	5640	0.04	0.000248362294
8	5641	0.04	0.026130907678
8	5642	0.04	0.012669140066
8	5643	0.04	0.012601822677
8	5644	0.04	0.000180060511
8	5645	0.04	0.000111758728
8	5646	0.04	4.3456945e-005
8	5647	0.04	0.026063907232
8	5758	0.041	0.013534505288
8	5759	0.041	0.013467187899
8	5760	0.041	0.000975155162
8	5761	0.041	0.000906853379
8	5762	0.041	0.000838551596
8	5763	0.041	0.026996906786
8	5764	0.041	0.01339987051
8	5765	0.041	0.013332553121
8	5766	0.041	0.000770249813
8	5767	0.041	0.00070194803
8	5768	0.041	0.000633646247
8	5769	0.041	0.02692990634
8	5770	0.041	0.013265235732
8	5771	0.041	0.013197918343
8	5772	0.041	0.000565344464
8	5773	0.041	0.000497042681
8	5774	0.041	0.000428740898
8	5775	0.041	0.026862905894
8	5776	0.041	0.013130600954
8	5777	0.041	0.013063283565
8	5778	0.041	0.000360439115
8	5779	0.041	0.000292137332
8	5780	0.041	0.000223835549
8	5781	0.041	0.026795905448
8	5782	0.041	0.012995966176
8	5783	0.041	0.012928648787
8	5784	0.041	0.000155533766
8	5785	0.041	8.7231983e-005
8	5786	0.041	1.89302e-005
8	5787	0.041	0.026728905002
8	5897	0.042	0.013861331398
8	5898	0.042	0.013794014009
8	5899	0.042	0.000950628417
8	5900	0.042	0.000882326634
8	5901	0.042	0.000814024851
8	5902	0.042	0.027661904556
8	5903	0.042	0.01372669662
8	5904	0.042	0.013659379231
8	5905	0.042	0.000745723068
8	5906	0.042	0.000677421285
8	5907	0.042	0.000609119502
8	5908	0.042	0.02759490411
8	5909	0.042	0.013592061842
8	5910	0.042	0.013524744453
8	5911	0.042	0.000540817719
8	5912	0.042	0.000472515936
8	5913	0.042	0.000404214153
8	5914	0.042	0.027527903664
8	5915	0.042	0.013457427064
8	5916	0.042	0.013390109675
8	5917	0.042	0.00033591237
8	5918	0.042	0.000267610587
8	5919	0.042	0.000199308804
8	5920	0.042	0.027460903218
8	5921	0.042	0.013322792286
8	5922	0.042	0.013255474897
8	5923	0.042	0.000131007021
8	5924	0.042	6.2705238e-005
8	5925	0.042	0.027393902772
8	5926	0.042	0.013188157508
8	6039	0.043	0.000994403455
8	6040	0.043	0.000926101672
8	6041	0.043	0.000857799889
8	6042	0.043	0.028326902326
8	6043	0.043	0.014120840119
8	6044	0.043	0.01405352273
8	6045	0.043	0.000789498106
8	6046	0.043	0.000721196323
8	6047	0.043	0.00065289454
8	6048	0.043	0.02825990188
8	6049	0.043	0.013986205341
8	6050	0.043	0.013918887952
8	6051	0.043	0.000584592757
8	6052	0.043	0.000516290974
8	6053	0.043	0.000447989191
8	6054	0.043	0.028192901434
8	6055	0.043	0.013851570563
8	6056	0.043	0.013784253174
8	6057	0.043	0.000379687408
8	6058	0.043	0.000311385625
8	6059	0.043	0.000243083842
8	6060	0.043	0.028125900988
8	6061	0.043	0.013716935785
8	6062	0.043	0.013649618396
8	6063	0.043	0.000174782059
8	6064	0.043	0.000106480276
8	6065	0.043	3.8178493e-005
8	6066	0.043	0.028058900542
8	6067	0.043	0.013582301007
8	6068	0.043	0.013514983618
8	6181	0.044	0.00096987671
8	6182	0.044	0.000901574927
8	6183	0.044	0.000833273144
8	6184	0.044	0.028991900096
8	6185	0.044	0.014447666229
8	6186	0.044	0.01438034884
8	6187	0.044	0.000764971361
8	6188	0.044	0.000696669578
8	6189	0.044	0.000628367795
8	6190	0.044	0.02892489965
8	6191	0.044	0.014313031451
8	6192	0.044	0.014245714062
8	6193	0.044	0.000560066012
8	6194	0.044	0.000491764229
8	6195	0.044	0.000423462446
8	6196	0.044	0.028857899204
8	6197	0.044	0.014178396673
8	6198	0.044	0.014111079284
8	6199	0.044	0.000355160663
8	6200	0.044	0.00028685888
8	6201	0.044	0.000218557097
8	6202	0.044	0.028790898758
8	6203	0.044	0.014043761895
8	6204	0.044	0.013976444506
8	6205	0.044	0.000150255314
8	6206	0.044	8.1953531e-005
8	6207	0.044	1.3651748e-005
8	6208	0.044	0.028723898312
8	6209	0.044	0.013909127117
8	6210	0.044	0.013841809728
8	6322	0.045	0.000945349965
8	6323	0.045	0.000877048182
8	6324	0.045	0.000808746399
8	6325	0.045	0.029656897866
8	6326	0.045	0.014774492339
8	6327	0.045	0.01470717495
8	6328	0.045	0.000740444616
8	6329	0.045	0.000672142833
8	6330	0.045	0.00060384105
8	6331	0.045	0.02958989742
8	6332	0.045	0.014639857561
8	6333	0.045	0.014572540172
8	6334	0.045	0.000535539267
8	6335	0.045	0.000467237484
8	6336	0.045	0.000398935701
8	6337	0.045	0.029522896974
8	6338	0.045	0.014505222783
8	6339	0.045	0.014437905394
8	6340	0.045	0.000330633918
8	6341	0.045	0.000262332135
8	6342	0.045	0.000194030352
8	6343	0.045	0.029455896528
8	6344	0.045	0.014370588005
8	6345	0.045	0.014303270616
8	6346	0.045	0.000125728569
8	6347	0.045	5.7426786e-005
8	6348	0.045	0.029388896082
8	6349	0.045	0.014235953227
8	6350	0.045	0.014168635838
8	6351	0.045	0.029321895636
8	6464	0.046	0.015101318449
8	6465	0.046	0.01503400106
8	6466	0.046	0.000989125003
8	6467	0.046	0.00092082322
8	6468	0.046	0.000852521437
8	6469	0.046	0.03025489519
8	6470	0.046	0.014966683671
8	6471	0.046	0.014899366282
8	6472	0.046	0.000784219654
8	6473	0.046	0.000715917871
8	6474	0.046	0.000647616088
8	6475	0.046	0.030187894744
8	6476	0.046	0.014832048893
8	6477	0.046	0.014764731504
8	6478	0.046	0.000579314305
8	6479	0.046	0.000511012522
8	6480	0.046	0.000442710739
8	6481	0.046	0.030120894298
8	6482	0.046	0.014697414115
8	6483	0.046	0.014630096726
8	6484	0.046	0.000374408956
8	6485	0.046	0.000306107173
8	6486	0.046	0.00023780539
8	6487	0.046	0.030053893852
8	6488	0.046	0.014562779337
8	6489	0.046	0.014495461948
8	6490	0.046	0.000169503607
8	6491	0.046	0.000101201824
8	6492	0.046	3.2900041e-005
8	6493	0.046	0.029986893406
8	6606	0.047	0.015428144559
8	6607	0.047	0.01536082717
8	6608	0.047	0.000964598258
8	6609	0.047	0.000896296475
8	6610	0.047	0.000827994692
8	6611	0.047	0.03091989296
8	6612	0.047	0.015293509781
8	6613	0.047	0.015226192392
8	6614	0.047	0.000759692909
8	6615	0.047	0.000691391126
8	6616	0.047	0.000623089343
8	6617	0.047	0.030852892514
8	6618	0.047	0.015158875003
8	6619	0.047	0.015091557614
8	6620	0.047	0.00055478756
8	6621	0.047	0.000486485777
8	6622	0.047	0.000418183994
8	6623	0.047	0.030785892068
8	6624	0.047	0.015024240225
8	6625	0.047	0.014956922836
8	6626	0.047	0.000349882211
8	6627	0.047	0.000281580428
8	6628	0.047	0.000213278645
8	6629	0.047	0.030718891622
8	6630	0.047	0.014889605447
8	6631	0.047	0.014822288058
8	6632	0.047	0.000144976862
8	6633	0.047	7.6675079e-005
8	6634	0.047	8.373296e-006
8	6635	0.047	0.030651891176
8	6747	0.048	0.015754970669
8	6748	0.048	0.01568765328
8	6749	0.048	0.000940071513
8	6750	0.048	0.00087176973
8	6751	0.048	0.000803467947
8	6752	0.048	0.03158489073
8	6753	0.048	0.015620335891
8	6754	0.048	0.015553018502
8	6755	0.048	0.000735166164
8	6756	0.048	0.000666864381
8	6757	0.048	0.000598562598
8	6758	0.048	0.031517890284
8	6759	0.048	0.015485701113
8	6760	0.048	0.015418383724
8	6761	0.048	0.000530260815
8	6762	0.048	0.000461959032
8	6763	0.048	0.000393657249
8	6764	0.048	0.031450889838
8	6765	0.048	0.015351066335
8	6766	0.048	0.015283748946
8	6767	0.048	0.000325355466
8	6768	0.048	0.000257053683
8	6769	0.048	0.0001887519
8	6770	0.048	0.031383889392
8	6771	0.048	0.015216431557
8	6772	0.048	0.015149114168
8	6773	0.048	0.000120450117
8	6774	0.048	5.2148334e-005
8	6775	0.048	0.031316888946
8	6776	0.048	0.015081796779
8	6887	0.049	0.000983846551
8	6888	0.049	0.000915544768
8	6889	0.049	0.000847242985
8	6890	0.049	0.0322498885
8	6891	0.049	0.01601447939
8	6892	0.049	0.015947162001
8	6893	0.049	0.000778941202
8	6894	0.049	0.000710639419
8	6895	0.049	0.000642337636
8	6896	0.049	0.032182888054
8	6897	0.049	0.015879844612
8	6898	0.049	0.015812527223
8	6899	0.049	0.000574035853
8	6900	0.049	0.00050573407
8	6901	0.049	0.000437432287
8	6902	0.049	0.032115887608
8	6903	0.049	0.015745209834
8	6904	0.049	0.015677892445
8	6905	0.049	0.000369130504
8	6906	0.049	0.000300828721
8	6907	0.049	0.000232526938
8	6908	0.049	0.032048887162
8	6909	0.049	0.015610575056
8	6910	0.049	0.015543257667
8	6911	0.049	0.000164225155
8	6912	0.049	9.5923372e-005
8	6913	0.049	2.7621589e-005
8	6914	0.049	0.031981886716
8	6915	0.049	0.015475940278
8	6916	0.049	0.015408622889
8	7029	0.05	0.000959319806
8	7030	0.05	0.000891018023
8	7031	0.05	0.00082271624
8	7032	0.05	0.03291488627
8	7033	0.05	0.0163413055
8	7034	0.05	0.016273988111
8	7035	0.05	0.000754414457
8	7036	0.05	0.000686112674
8	7037	0.05	0.000617810891
8	7038	0.05	0.032847885824
8	7039	0.05	0.016206670722
8	7040	0.05	0.016139353333
8	7041	0.05	0.000549509108
8	7042	0.05	0.000481207325
8	7043	0.05	0.000412905542
8	7044	0.05	0.032780885378
8	7045	0.05	0.016072035944
8	7046	0.05	0.016004718555
8	7047	0.05	0.000344603759
8	7048	0.05	0.000276301976
8	7049	0.05	0.000208000193
8	7050	0.05	0.032713884932
8	7051	0.05	0.015937401166
8	7052	0.05	0.015870083777
8	7053	0.05	0.00013969841
8	7054	0.05	7.1396627e-005
8	7055	0.05	3.094844e-006
8	7056	0.05	0.032646884486
8	7057	0.05	0.015802766388
8	7058	0.05	0.015735448999
8	7170	0.051	0.000934793061
8	7171	0.051	0.000866491278
8	7172	0.051	0.000798189495
8	7173	0.051	0.03357988404
8	7174	0.051	0.01666813161
8	7175	0.051	0.016600814221
8	7176	0.051	0.000729887712
8	7177	0.051	0.000661585929
8	7178	0.051	0.000593284146
8	7179	0.051	0.033512883594
8	7180	0.051	0.016533496832
8	7181	0.051	0.016466179443
8	7182	0.051	0.000524982363
8	7183	0.051	0.00045668058
8	7184	0.051	0.000388378797
8	7185	0.051	0.033445883148
8	7186	0.051	0.016398862054
8	7187	0.051	0.016331544665
8	7188	0.051	0.000320077014
8	7189	0.051	0.000251775231
8	7190	0.051	0.000183473448
8	7191	0.051	0.033378882702
8	7192	0.051	0.016264227276
8	7193	0.051	0.016196909887
8	7194	0.051	0.000115171665
8	7195	0.051	4.6869882e-005
8	7196	0.051	0.033311882256
8	7197	0.051	0.016129592498
8	7198	0.051	0.016062275109
8	7199	0.051	0.03324488181
8	7312	0.052	0.01699495772
8	7313	0.052	0.016927640331
8	7314	0.052	0.000978568099
8	7315	0.052	0.000910266316
8	7316	0.052	0.000841964533
8	7317	0.052	0.034177881364
8	7318	0.052	0.016860322942
8	7319	0.052	0.016793005553
8	7320	0.052	0.00077366275
8	7321	0.052	0.000705360967
8	7322	0.052	0.000637059184
8	7323	0.052	0.034110880918
8	7324	0.052	0.016725688164
8	7325	0.052	0.016658370775
8	7326	0.052	0.000568757401
8	7327	0.052	0.000500455618
8	7328	0.052	0.000432153835
8	7329	0.052	0.034043880472
8	7330	0.052	0.016591053386
8	7331	0.052	0.016523735997
8	7332	0.052	0.000363852052
8	7333	0.052	0.000295550269
8	7334	0.052	0.000227248486
8	7335	0.052	0.033976880026
8	7336	0.052	0.016456418608
8	7337	0.052	0.016389101219
8	7338	0.052	0.000158946703
8	7339	0.052	9.064492e-005
8	7340	0.052	2.2343137e-005
8	7341	0.052	0.03390987958
8	7453	0.053	0.01732178383
8	7454	0.053	0.017254466441
8	7455	0.053	0.000954041354
8	7456	0.053	0.000885739571
8	7457	0.053	0.000817437788
8	7458	0.053	0.034842879134
8	7459	0.053	0.017187149052
8	7460	0.053	0.017119831663
8	7461	0.053	0.000749136005
8	7462	0.053	0.000680834222
8	7463	0.053	0.000612532439
8	7464	0.053	0.034775878688
8	7465	0.053	0.017052514274
8	7466	0.053	0.016985196885
8	7467	0.053	0.000544230656
8	7468	0.053	0.000475928873
8	7469	0.053	0.00040762709
8	7470	0.053	0.034708878242
8	7471	0.053	0.016917879496
8	7472	0.053	0.016850562107
8	7473	0.053	0.000339325307
8	7474	0.053	0.000271023524
8	7475	0.053	0.000202721741
8	7476	0.053	0.034641877796
8	7477	0.053	0.016783244718
8	7478	0.053	0.016715927329
8	7479	0.053	0.000134419958
8	7480	0.053	6.6118175e-005
8	7481	0.053	0.03457487735
8	7482	0.053	0.01664860994
8	7593	0.054	0.000997816392
8	7594	0.054	0.000929514609
8	7595	0.054	0.000861212826
8	7596	0.054	0.035507876904
8	7597	0.054	0.017581292551
8	7598	0.054	0.017513975162
8	7599	0.054	0.000792911043
8	7600	0.054	0.00072460926
8	7601	0.054	0.000656307477
8	7602	0.054	0.035440876458
8	7603	0.054	0.017446657773
8	7604	0.054	0.017379340384
8	7605	0.054	0.000588005694
8	7606	0.054	0.000519703911
8	7607	0.054	0.000451402128
8	7608	0.054	0.035373876012
8	7609	0.054	0.017312022995
8	7610	0.054	0.017244705606
8	7611	0.054	0.000383100345
8	7612	0.054	0.000314798562
8	7613	0.054	0.000246496779
8	7614	0.054	0.035306875566
8	7615	0.054	0.017177388217
8	7616	0.054	0.017110070828
8	7617	0.054	0.000178194996
8	7618	0.054	0.000109893213
8	7619	0.054	4.159143e-005
8	7620	0.054	0.03523987512
8	7621	0.054	0.017042753439
8	7622	0.054	0.01697543605
8	7735	0.055	0.000973289647
8	7736	0.055	0.000904987864
8	7737	0.055	0.000836686081
8	7738	0.055	0.036172874674
8	7739	0.055	0.017908118661
8	7740	0.055	0.017840801272
8	7741	0.055	0.000768384298
8	7742	0.055	0.000700082515
8	7743	0.055	0.000631780732
8	7744	0.055	0.036105874228
8	7745	0.055	0.017773483883
8	7746	0.055	0.017706166494
8	7747	0.055	0.000563478949
8	7748	0.055	0.000495177166
8	7749	0.055	0.000426875383
8	7750	0.055	0.036038873782
8	7751	0.055	0.017638849105
8	7752	0.055	0.017571531716
8	7753	0.055	0.0003585736
8	7754	0.055	0.000290271817
8	7755	0.055	0.000221970034
8	7756	0.055	0.035971873336
8	7757	0.055	0.017504214327
8	7758	0.055	0.017436896938
8	7759	0.055	0.000153668251
8	7760	0.055	8.5366468e-005
8	7761	0.055	1.7064685e-005
8	7762	0.055	0.03590487289
8	7763	0.055	0.017369579549
8	7764	0.055	0.01730226216
8	7874	0.056	0.000948762902
8	7875	0.056	0.000880461119
8	7876	0.056	0.000812159336
8	7877	0.056	0.036837872444
8	7878	0.056	0.018234944771
8	7879	0.056	0.018167627382
8	7880	0.056	0.000743857553
8	7881	0.056	0.00067555577
8	7882	0.056	0.000607253987
8	7883	0.056	0.036770871998
8	7884	0.056	0.018100309993
8	7885	0.056	0.018032992604
8	7886	0.056	0.000538952204
8	7887	0.056	0.000470650421
8	7888	0.056	0.000402348638
8	7889	0.056	0.036703871552
8	7890	0.056	0.017965675215
8	7891	0.056	0.017898357826
8	7892	0.056	0.000334046855
8	7893	0.056	0.000265745072
8	7894	0.056	0.000197443289
8	7895	0.056	0.036636871106
8	7896	0.056	0.017831040437
8	7897	0.056	0.017763723048
8	7898	0.056	0.000129141506
8	7899	0.056	6.0839723e-005
8	7900	0.056	0.03656987066
8	7901	0.056	0.017696405659
8	7902	0.056	0.01762908827
8	7903	0.056	0.036502870214
8	8016	0.057	0.018561770881
8	8017	0.057	0.018494453492
8	8018	0.057	0.00099253794
8	8019	0.057	0.000924236157
8	8020	0.057	0.000855934374
8	8021	0.057	0.037435869768
8	8022	0.057	0.018427136103
8	8023	0.057	0.018359818714
8	8024	0.057	0.000787632591
8	8025	0.057	0.000719330808
8	8026	0.057	0.000651029025
8	8027	0.057	0.037368869322
8	8028	0.057	0.018292501325
8	8029	0.057	0.018225183936
8	8030	0.057	0.000582727242
8	8031	0.057	0.000514425459
8	8032	0.057	0.000446123676
8	8033	0.057	0.037301868876
8	8034	0.057	0.018157866547
8	8035	0.057	0.018090549158
8	8036	0.057	0.000377821893
8	8037	0.057	0.00030952011
8	8038	0.057	0.000241218327
8	8039	0.057	0.03723486843
8	8040	0.057	0.018023231769
8	8041	0.057	0.01795591438
8	8042	0.057	0.000172916544
8	8043	0.057	0.000104614761
8	8044	0.057	3.6312978e-005
8	8045	0.057	0.037167867984
8	8158	0.058	0.018888596991
8	8159	0.058	0.018821279602
8	8160	0.058	0.000968011195
8	8161	0.058	0.000899709412
8	8162	0.058	0.000831407629
8	8163	0.058	0.038100867538
8	8164	0.058	0.018753962213
8	8165	0.058	0.018686644824
8	8166	0.058	0.000763105846
8	8167	0.058	0.000694804063
8	8168	0.058	0.00062650228
8	8169	0.058	0.038033867092
8	8170	0.058	0.018619327435
8	8171	0.058	0.018552010046
8	8172	0.058	0.000558200497
8	8173	0.058	0.000489898714
8	8174	0.058	0.000421596931
8	8175	0.058	0.037966866646
8	8176	0.058	0.018484692657
8	8177	0.058	0.018417375268
8	8178	0.058	0.000353295148
8	8179	0.058	0.000284993365
8	8180	0.058	0.000216691582
8	8181	0.058	0.0378998662
8	8182	0.058	0.018350057879
8	8183	0.058	0.01828274049
8	8184	0.058	0.000148389799
8	8185	0.058	8.0088016e-005
8	8186	0.058	1.1786233e-005
8	8187	0.058	0.037832865754
8	8299	0.059	0.019215423101
8	8300	0.059	0.019148105712
8	8301	0.059	0.00094348445
8	8302	0.059	0.000875182667
8	8303	0.059	0.000806880884
8	8304	0.059	0.038765865308
8	8305	0.059	0.019080788323
8	8306	0.059	0.019013470934
8	8307	0.059	0.000738579101
8	8308	0.059	0.000670277318
8	8309	0.059	0.000601975535
8	8310	0.059	0.038698864862
8	8311	0.059	0.018946153545
8	8312	0.059	0.018878836156
8	8313	0.059	0.000533673752
8	8314	0.059	0.000465371969
8	8315	0.059	0.000397070186
8	8316	0.059	0.038631864416
8	8317	0.059	0.018811518767
8	8318	0.059	0.018744201378
8	8319	0.059	0.000328768403
8	8320	0.059	0.00026046662
8	8321	0.059	0.000192164837
8	8322	0.059	0.03856486397
8	8323	0.059	0.018676883989
8	8324	0.059	0.0186095666
8	8325	0.059	0.000123863054
8	8326	0.059	5.5561271e-005
8	8327	0.059	0.038497863524
8	8328	0.059	0.018542249211
8	8441	0.06	0.000987259488
8	8442	0.06	0.000918957705
8	8443	0.06	0.000850655922
8	8444	0.06	0.039430863078
8	8445	0.06	0.019474931822
8	8446	0.06	0.019407614433
8	8447	0.06	0.000782354139
8	8448	0.06	0.000714052356
8	8449	0.06	0.000645750573
8	8450	0.06	0.039363862632
8	8451	0.06	0.019340297044
8	8452	0.06	0.019272979655
8	8453	0.06	0.00057744879
8	8454	0.06	0.000509147007
8	8455	0.06	0.000440845224
8	8456	0.06	0.039296862186
8	8457	0.06	0.019205662266
8	8458	0.06	0.019138344877
8	8459	0.06	0.000372543441
8	8460	0.06	0.000304241658
8	8461	0.06	0.000235939875
8	8462	0.06	0.03922986174
8	8463	0.06	0.019071027488
8	8464	0.06	0.019003710099
8	8465	0.06	0.000167638092
8	8466	0.06	9.9336309e-005
8	8467	0.06	3.1034526e-005
8	8468	0.06	0.039162861294
8	8469	0.06	0.01893639271
8	8470	0.06	0.018869075321
8	8583	0.061	0.000962732743
8	8584	0.061	0.00089443096
8	8585	0.061	0.000826129177
8	8586	0.061	0.040095860848
8	8587	0.061	0.019801757932
8	8588	0.061	0.019734440543
8	8589	0.061	0.000757827394
8	8590	0.061	0.000689525611
8	8591	0.061	0.000621223828
8	8592	0.061	0.040028860402
8	8593	0.061	0.019667123154
8	8594	0.061	0.019599805765
8	8595	0.061	0.000552922045
8	8596	0.061	0.000484620262
8	8597	0.061	0.000416318479
8	8598	0.061	0.039961859956
8	8599	0.061	0.019532488376
8	8600	0.061	0.019465170987
8	8601	0.061	0.000348016696
8	8602	0.061	0.000279714913
8	8603	0.061	0.00021141313
8	8604	0.061	0.03989485951
8	8605	0.061	0.019397853598
8	8606	0.061	0.019330536209
8	8607	0.061	0.000143111347
8	8608	0.061	7.4809564e-005
8	8609	0.061	6.507781e-006
8	8610	0.061	0.039827859064
8	8611	0.061	0.01926321882
8	8612	0.061	0.019195901431
8	8724	0.062	0.000938205998
8	8725	0.062	0.000869904215
8	8726	0.062	0.000801602432
8	8727	0.062	0.040760858618
8	8728	0.062	0.020128584042
8	8729	0.062	0.020061266653
8	8730	0.062	0.000733300649
8	8731	0.062	0.000664998866
8	8732	0.062	0.000596697083
8	8733	0.062	0.040693858172
8	8734	0.062	0.019993949264
8	8735	0.062	0.019926631875
8	8736	0.062	0.0005283953
8	8737	0.062	0.000460093517
8	8738	0.062	0.000391791734
8	8739	0.062	0.040626857726
8	8740	0.062	0.019859314486
8	8741	0.062	0.019791997097
8	8742	0.062	0.000323489951
8	8743	0.062	0.000255188168
8	8744	0.062	0.000186886385
8	8745	0.062	0.04055985728
8	8746	0.062	0.019724679708
8	8747	0.062	0.019657362319
8	8748	0.062	0.000118584602
8	8749	0.062	5.0282819e-005
8	8750	0.062	0.040492856834
8	8751	0.062	0.01959004493
8	8752	0.062	0.019522727541
8	8753	0.062	0.040425856388
8	8864	0.063	0.020455410152
8	8865	0.063	0.020388092763
8	8866	0.063	0.000981981036
8	8867	0.063	0.000913679253
8	8868	0.063	0.00084537747
8	8869	0.063	0.041358855942
8	8870	0.063	0.020320775374
8	8871	0.063	0.020253457985
8	8872	0.063	0.000777075687
8	8873	0.063	0.000708773904
8	8874	0.063	0.000640472121
8	8875	0.063	0.041291855496
8	8876	0.063	0.020186140596
8	8877	0.063	0.020118823207
8	8878	0.063	0.000572170338
8	8879	0.063	0.000503868555
8	8880	0.063	0.000435566772
8	8881	0.063	0.04122485505
8	8882	0.063	0.020051505818
8	8883	0.063	0.019984188429
8	8884	0.063	0.000367264989
8	8885	0.063	0.000298963206
8	8886	0.063	0.000230661423
8	8887	0.063	0.041157854604
8	8888	0.063	0.01991687104
8	8889	0.063	0.019849553651
8	8890	0.063	0.00016235964
8	8891	0.063	9.4057857e-005
8	8892	0.063	2.5756074e-005
8	8893	0.063	0.041090854158
8	9006	0.064	0.020782236262
8	9007	0.064	0.020714918873
8	9008	0.064	0.000957454291
8	9009	0.064	0.000889152508
8	9010	0.064	0.000820850725
8	9011	0.064	0.042023853712
8	9012	0.064	0.020647601484
8	9013	0.064	0.020580284095
8	9014	0.064	0.000752548942
8	9015	0.064	0.000684247159
8	9016	0.064	0.000615945376
8	9017	0.064	0.041956853266
8	9018	0.064	0.020512966706
8	9019	0.064	0.020445649317
8	9020	0.064	0.000547643593
8	9021	0.064	0.00047934181
8	9022	0.064	0.000411040027
8	9023	0.064	0.04188985282
8	9024	0.064	0.020378331928
8	9025	0.064	0.020311014539
8	9026	0.064	0.000342738244
8	9027	0.064	0.000274436461
8	9028	0.064	0.000206134678
8	9029	0.064	0.041822852374
8	9030	0.064	0.02024369715
8	9031	0.064	0.020176379761
8	9032	0.064	0.000137832895
8	9033	0.064	6.9531112e-005
8	9034	0.064	1.229329e-006
8	9035	0.064	0.041755851928
8	9147	0.065	0.021109062372
8	9148	0.065	0.021041744983
8	9149	0.065	0.000932927546
8	9150	0.065	0.000864625763
8	9151	0.065	0.00079632398
8	9152	0.065	0.042688851482
8	9153	0.065	0.020974427594
8	9154	0.065	0.020907110205
8	9155	0.065	0.000728022197
8	9156	0.065	0.000659720414
8	9157	0.065	0.000591418631
8	9158	0.065	0.042621851036
8	9159	0.065	0.020839792816
8	9160	0.065	0.020772475427
8	9161	0.065	0.000523116848
8	9162	0.065	0.000454815065
8	9163	0.065	0.000386513282
8	9164	0.065	0.04255485059
8	9165	0.065	0.020705158038
8	9166	0.065	0.020637840649
8	9167	0.065	0.000318211499
8	9168	0.065	0.000249909716
8	9169	0.065	0.000181607933
8	9170	0.065	0.042487850144
8	9171	0.065	0.02057052326
8	9172	0.065	0.020503205871
8	9173	0.065	0.00011330615
8	9174	0.065	4.5004367e-005
8	9175	0.065	0.042420849698
8	9176	0.065	0.020435888482
8	9289	0.066	0.000976702584
8	9290	0.066	0.000908400801
8	9291	0.066	0.000840099018
8	9292	0.066	0.043353849252
8	9293	0.066	0.021368571093
8	9294	0.066	0.021301253704
8	9295	0.066	0.000771797235
8	9296	0.066	0.000703495452
8	9297	0.066	0.000635193669
8	9298	0.066	0.043286848806
8	9299	0.066	0.021233936315
8	9300	0.066	0.021166618926
8	9301	0.066	0.000566891886
8	9302	0.066	0.000498590103
8	9303	0.066	0.00043028832
8	9304	0.066	0.04321984836
8	9305	0.066	0.021099301537
8	9306	0.066	0.021031984148
8	9307	0.066	0.000361986537
8	9308	0.066	0.000293684754
8	9309	0.066	0.000225382971
8	9310	0.066	0.043152847914
8	9311	0.066	0.020964666759
8	9312	0.066	0.02089734937
8	9313	0.066	0.000157081188
8	9314	0.066	8.8779405e-005
8	9315	0.066	2.0477622e-005
8	9316	0.066	0.043085847468
8	9317	0.066	0.020830031981
8	9318	0.066	0.020762714592
8	9428	0.067	0.000952175839
8	9429	0.067	0.000883874056
8	9430	0.067	0.000815572273
8	9431	0.067	0.044018847022
8	9432	0.067	0.021695397203
8	9433	0.067	0.021628079814
8	9434	0.067	0.00074727049
8	9435	0.067	0.000678968707
8	9436	0.067	0.000610666924
8	9437	0.067	0.043951846576
8	9438	0.067	0.021560762425
8	9439	0.067	0.021493445036
8	9440	0.067	0.000542365141
8	9441	0.067	0.000474063358
8	9442	0.067	0.000405761575
8	9443	0.067	0.04388484613
8	9444	0.067	0.021426127647
8	9445	0.067	0.021358810258
8	9446	0.067	0.000337459792
8	9447	0.067	0.000269158009
8	9448	0.067	0.000200856226
8	9449	0.067	0.043817845684
8	9450	0.067	0.021291492869
8	9451	0.067	0.02122417548
8	9452	0.067	0.000132554443
8	9453	0.067	6.425266e-005
8	9454	0.067	0.043750845238
8	9455	0.067	0.021156858091
8	9456	0.067	0.021089540702
8	9457	0.067	0.043683844792
8	9570	0.068	0.022022223313
8	9571	0.068	0.021954905924
8	9572	0.068	0.000995950877
8	9573	0.068	0.000927649094
8	9574	0.068	0.000859347311
8	9575	0.068	0.044616844346
8	9576	0.068	0.021887588535
8	9577	0.068	0.021820271146
8	9578	0.068	0.000791045528
8	9579	0.068	0.000722743745
8	9580	0.068	0.000654441962
8	9581	0.068	0.0445498439
8	9582	0.068	0.021752953757
8	9583	0.068	0.021685636368
8	9584	0.068	0.000586140179
8	9585	0.068	0.000517838396
8	9586	0.068	0.000449536613
8	9587	0.068	0.044482843454
8	9588	0.068	0.021618318979
8	9589	0.068	0.02155100159
8	9590	0.068	0.00038123483
8	9591	0.068	0.000312933047
8	9592	0.068	0.000244631264
8	9593	0.068	0.044415843008
8	9594	0.068	0.021483684201
8	9595	0.068	0.021416366812
8	9596	0.068	0.000176329481
8	9597	0.068	0.000108027698
8	9598	0.068	3.9725915e-005
8	9599	0.068	0.044348842562
8	9710	0.069	0.022349049423
8	9711	0.069	0.022281732034
8	9712	0.069	0.000971424132
8	9713	0.069	0.000903122349
8	9714	0.069	0.000834820566
8	9715	0.069	0.045281842116
8	9716	0.069	0.022214414645
8	9717	0.069	0.022147097256
8	9718	0.069	0.000766518783
8	9719	0.069	0.000698217
8	9720	0.069	0.000629915217
8	9721	0.069	0.04521484167
8	9722	0.069	0.022079779867
8	9723	0.069	0.022012462478
8	9724	0.069	0.000561613434
8	9725	0.069	0.000493311651
8	9726	0.069	0.000425009868
8	9727	0.069	0.045147841224
8	9728	0.069	0.021945145089
8	9729	0.069	0.0218778277
8	9730	0.069	0.000356708085
8	9731	0.069	0.000288406302
8	9732	0.069	0.000220104519
8	9733	0.069	0.045080840778
8	9734	0.069	0.021810510311
8	9735	0.069	0.021743192922
8	9736	0.069	0.000151802736
8	9737	0.069	8.3500953e-005
8	9738	0.069	1.519917e-005
8	9739	0.069	0.045013840332
8	9851	0.07	0.022675875533
8	9852	0.07	0.022608558144
8	9853	0.07	0.000946897387
8	9854	0.07	0.000878595604
8	9855	0.07	0.000810293821
8	9856	0.07	0.045946839886
8	9857	0.07	0.022541240755
8	9858	0.07	0.022473923366
8	9859	0.07	0.000741992038
8	9860	0.07	0.000673690255
8	9861	0.07	0.000605388472
8	9862	0.07	0.04587983944
8	9863	0.07	0.022406605977
8	9864	0.07	0.022339288588
8	9865	0.07	0.000537086689
8	9866	0.07	0.000468784906
8	9867	0.07	0.000400483123
8	9868	0.07	0.045812838994
8	9869	0.07	0.022271971199
8	9870	0.07	0.02220465381
8	9871	0.07	0.00033218134
8	9872	0.07	0.000263879557
8	9873	0.07	0.000195577774
8	9874	0.07	0.045745838548
8	9875	0.07	0.022137336421
8	9876	0.07	0.022070019032
8	9877	0.07	0.000127275991
8	9878	0.07	5.8974208e-005
8	9879	0.07	0.045678838102
8	9880	0.07	0.022002701643
8	9993	0.071	0.000990672425
8	9994	0.071	0.000922370642
8	9995	0.071	0.000854068859
8	9996	0.071	0.046611837656
8	9997	0.071	0.022935384254
8	9998	0.071	0.022868066865
8	9999	0.071	0.000785767076
8	10000	0.071	0.000717465293

