version 2
run _3UsersSetupPF-0-20201129-19:04:41-17456
attr configname _3UsersSetupPF
attr datetime 20201129-19:04:41
attr experiment _3UsersSetupPF
attr inifile omnetpp.ini
attr iterationvars ""
attr iterationvarsf ""
attr measurement ""
attr network Network
attr processid 17456
attr repetition 0
attr replication #0
attr resultdir results
attr runnumber 0
attr seedset 0
param **.algorithm "\"pf\""
param **.usersCount 3
param **.channelsCount 30
param **.networkLoad 1.1
param **.scheduler.generateInterval 1ms
param **.gen.generateInterval "triang(0.9ms, 1.0ms, 1.1ms)"
param **.user[0].radioLinkQuality 1
param **.user[1].radioLinkQuality 2
param **.user[2].radioLinkQuality 3
param **.user[0].gen.startingMessage 0
param **.user[1].gen.startingMessage 100
param **.user[2].gen.startingMessage 200

vector 0 Network.user[0].queue "Queue before scheduler's run." ETV
vector 1 Network.user[1].queue "Queue before scheduler's run." ETV
vector 2 Network.user[2].queue "Queue before scheduler's run." ETV
vector 3 Network.scheduler "Scheduler free channels" ETV
vector 4 Network.scheduler "Total users' queues lengths" ETV
vector 5 Network.user[2].queue "Queue after scheduler's run." ETV
vector 6 Network.user[1].queue "Queue after scheduler's run." ETV
vector 7 Network.user[0].queue "Queue after scheduler's run." ETV
vector 8 Network.sink lifetime:vector ETV
attr interpolationmode none
attr title "lifetime of arrived jobs, vector"
attr unit s
0	62	0.001	10
0	184	0.002	11
0	305	0.003	14
0	424	0.004	17
0	546	0.005	19
0	667	0.006	22
0	788	0.007	25
0	907	0.008	28
0	1029	0.009	30
0	1148	0.01	33
0	1269	0.011	35
0	1388	0.012	38
0	1510	0.013	40
0	1631	0.014	43
0	1752	0.015	46
0	1871	0.016	49
0	1993	0.017	51
0	2114	0.018	54
0	2229	0.019	56
0	2351	0.02	57
0	2472	0.021	60
0	2593	0.022	63
0	2712	0.023	66
0	2834	0.024	68
0	2955	0.025	71
0	3076	0.026	74
0	3195	0.027	77
0	3317	0.028	79
0	3436	0.029	82
0	3557	0.03	84
0	3676	0.031	87
0	3798	0.032	89
0	3919	0.033	92
0	4040	0.034	95
0	4159	0.035	98
0	4281	0.036	100
0	4400	0.037	102
0	4517	0.038	105
0	4639	0.039	106
0	4760	0.04	109
0	4881	0.041	112
0	5000	0.042	115
0	5122	0.043	117
0	5243	0.044	120
0	5364	0.045	123
0	5483	0.046	126
0	5605	0.047	128
0	5724	0.048	131
0	5845	0.049	133
0	5964	0.05	136
0	6086	0.051	138
0	6207	0.052	141
0	6328	0.053	144
0	6447	0.054	147
0	6567	0.055	148
0	6688	0.056	151
0	6805	0.057	154
0	6927	0.058	155
0	7048	0.059	158
0	7169	0.06	161
0	7288	0.061	164
0	7410	0.062	166
0	7531	0.063	169
0	7652	0.064	172
0	7771	0.065	175
0	7891	0.066	177
0	8012	0.067	179
0	8133	0.068	182
0	8252	0.069	185
0	8374	0.07	187
0	8495	0.071	190
0	8616	0.072	193
0	8733	0.073	195
0	8855	0.074	197
0	8976	0.075	200
0	9093	0.076	203
0	9215	0.077	204
0	9336	0.078	207
0	9457	0.079	210
0	9576	0.08	213
0	9698	0.081	215
0	9819	0.082	218
0	9940	0.083	221
1	63	0.001	10
1	185	0.002	11
1	306	0.003	11
1	425	0.004	11
1	547	0.005	11
1	668	0.006	11
1	789	0.007	11
1	908	0.008	11
1	1030	0.009	11
1	1149	0.01	10
1	1270	0.011	11
1	1389	0.012	11
1	1511	0.013	11
1	1632	0.014	11
1	1753	0.015	11
1	1872	0.016	11
1	1994	0.017	11
1	2115	0.018	11
1	2230	0.019	10
1	2352	0.02	11
1	2473	0.021	11
1	2594	0.022	11
1	2713	0.023	11
1	2835	0.024	11
1	2956	0.025	11
1	3077	0.026	11
1	3196	0.027	11
1	3318	0.028	11
1	3437	0.029	10
1	3558	0.03	11
1	3677	0.031	11
1	3799	0.032	11
1	3920	0.033	11
1	4041	0.034	11
1	4160	0.035	11
1	4282	0.036	11
1	4401	0.037	11
1	4518	0.038	10
1	4640	0.039	11
1	4761	0.04	11
1	4882	0.041	11
1	5001	0.042	11
1	5123	0.043	11
1	5244	0.044	11
1	5365	0.045	11
1	5484	0.046	11
1	5606	0.047	11
1	5725	0.048	10
1	5846	0.049	11
1	5965	0.05	11
1	6087	0.051	11
1	6208	0.052	11
1	6329	0.053	11
1	6448	0.054	11
1	6568	0.055	11
1	6689	0.056	11
1	6806	0.057	10
1	6928	0.058	11
1	7049	0.059	11
1	7170	0.06	11
1	7289	0.061	11
1	7411	0.062	11
1	7532	0.063	11
1	7653	0.064	11
1	7772	0.065	11
1	7892	0.066	10
1	8013	0.067	11
1	8134	0.068	11
1	8253	0.069	11
1	8375	0.07	11
1	8496	0.071	11
1	8617	0.072	11
1	8734	0.073	11
1	8856	0.074	11
1	8977	0.075	11
1	9094	0.076	10
1	9216	0.077	11
1	9337	0.078	11
1	9458	0.079	11
1	9577	0.08	11
1	9699	0.081	11
1	9820	0.082	11
1	9941	0.083	11
2	64	0.001	10
2	186	0.002	11
2	307	0.003	11
2	426	0.004	10
2	548	0.005	11
2	669	0.006	11
2	790	0.007	11
2	909	0.008	10
2	1031	0.009	11
2	1150	0.01	11
2	1271	0.011	11
2	1390	0.012	10
2	1512	0.013	11
2	1633	0.014	11
2	1754	0.015	11
2	1873	0.016	10
2	1995	0.017	11
2	2116	0.018	11
2	2231	0.019	10
2	2353	0.02	11
2	2474	0.021	11
2	2595	0.022	11
2	2714	0.023	10
2	2836	0.024	11
2	2957	0.025	11
2	3078	0.026	11
2	3197	0.027	10
2	3319	0.028	11
2	3438	0.029	11
2	3559	0.03	11
2	3678	0.031	10
2	3800	0.032	11
2	3921	0.033	11
2	4042	0.034	11
2	4161	0.035	10
2	4283	0.036	11
2	4402	0.037	11
2	4519	0.038	10
2	4641	0.039	11
2	4762	0.04	11
2	4883	0.041	11
2	5002	0.042	10
2	5124	0.043	11
2	5245	0.044	11
2	5366	0.045	11
2	5485	0.046	10
2	5607	0.047	11
2	5726	0.048	11
2	5847	0.049	11
2	5966	0.05	10
2	6088	0.051	11
2	6209	0.052	11
2	6330	0.053	11
2	6449	0.054	10
2	6569	0.055	11
2	6690	0.056	11
2	6807	0.057	10
2	6929	0.058	11
2	7050	0.059	11
2	7171	0.06	11
2	7290	0.061	10
2	7412	0.062	11
2	7533	0.063	11
2	7654	0.064	11
2	7773	0.065	10
2	7893	0.066	11
2	8014	0.067	11
2	8135	0.068	11
2	8254	0.069	10
2	8376	0.07	11
2	8497	0.071	11
2	8618	0.072	11
2	8735	0.073	10
2	8857	0.074	11
2	8978	0.075	11
2	9095	0.076	10
2	9217	0.077	11
2	9338	0.078	11
2	9459	0.079	11
2	9578	0.08	10
2	9700	0.081	11
2	9821	0.082	11
2	9942	0.083	11
3	67	0.001	0
3	189	0.002	0
3	310	0.003	0
3	429	0.004	0
3	551	0.005	0
3	672	0.006	0
3	793	0.007	0
3	912	0.008	0
3	1034	0.009	0
3	1153	0.01	0
3	1274	0.011	0
3	1393	0.012	0
3	1515	0.013	0
3	1636	0.014	0
3	1757	0.015	0
3	1876	0.016	0
3	1998	0.017	0
3	2119	0.018	0
3	2234	0.019	0
3	2356	0.02	0
3	2477	0.021	0
3	2598	0.022	0
3	2717	0.023	0
3	2839	0.024	0
3	2960	0.025	0
3	3081	0.026	0
3	3200	0.027	0
3	3322	0.028	0
3	3441	0.029	0
3	3562	0.03	0
3	3681	0.031	0
3	3803	0.032	0
3	3924	0.033	0
3	4045	0.034	0
3	4164	0.035	0
3	4286	0.036	0
3	4405	0.037	0
3	4522	0.038	0
3	4644	0.039	0
3	4765	0.04	0
3	4886	0.041	0
3	5005	0.042	0
3	5127	0.043	0
3	5248	0.044	0
3	5369	0.045	0
3	5488	0.046	0
3	5610	0.047	0
3	5729	0.048	0
3	5850	0.049	0
3	5969	0.05	0
3	6091	0.051	0
3	6212	0.052	0
3	6333	0.053	0
3	6452	0.054	0
3	6572	0.055	0
3	6693	0.056	0
3	6810	0.057	0
3	6932	0.058	0
3	7053	0.059	0
3	7174	0.06	0
3	7293	0.061	0
3	7415	0.062	0
3	7536	0.063	0
3	7657	0.064	0
3	7776	0.065	0
3	7896	0.066	0
3	8017	0.067	0
3	8138	0.068	0
3	8257	0.069	0
3	8379	0.07	0
3	8500	0.071	0
3	8621	0.072	0
3	8738	0.073	0
3	8860	0.074	0
3	8981	0.075	0
3	9098	0.076	0
3	9220	0.077	0
3	9341	0.078	0
3	9462	0.079	0
3	9581	0.08	0
3	9703	0.081	0
3	9824	0.082	0
3	9945	0.083	0
4	67	0.001	0
4	189	0.002	3
4	310	0.003	6
4	429	0.004	8
4	551	0.005	11
4	672	0.006	14
4	793	0.007	17
4	912	0.008	19
4	1034	0.009	22
4	1153	0.01	24
4	1274	0.011	27
4	1393	0.012	29
4	1515	0.013	32
4	1636	0.014	35
4	1757	0.015	38
4	1876	0.016	40
4	1998	0.017	43
4	2119	0.018	46
4	2234	0.019	46
4	2356	0.02	49
4	2477	0.021	52
4	2598	0.022	55
4	2717	0.023	57
4	2839	0.024	60
4	2960	0.025	63
4	3081	0.026	66
4	3200	0.027	68
4	3322	0.028	71
4	3441	0.029	73
4	3562	0.03	76
4	3681	0.031	78
4	3803	0.032	81
4	3924	0.033	84
4	4045	0.034	87
4	4164	0.035	89
4	4286	0.036	92
4	4405	0.037	94
4	4522	0.038	95
4	4644	0.039	98
4	4765	0.04	101
4	4886	0.041	104
4	5005	0.042	106
4	5127	0.043	109
4	5248	0.044	112
4	5369	0.045	115
4	5488	0.046	117
4	5610	0.047	120
4	5729	0.048	122
4	5850	0.049	125
4	5969	0.05	127
4	6091	0.051	130
4	6212	0.052	133
4	6333	0.053	136
4	6452	0.054	138
4	6572	0.055	140
4	6693	0.056	143
4	6810	0.057	144
4	6932	0.058	147
4	7053	0.059	150
4	7174	0.06	153
4	7293	0.061	155
4	7415	0.062	158
4	7536	0.063	161
4	7657	0.064	164
4	7776	0.065	166
4	7896	0.066	168
4	8017	0.067	171
4	8138	0.068	174
4	8257	0.069	176
4	8379	0.07	179
4	8500	0.071	182
4	8621	0.072	185
4	8738	0.073	186
4	8860	0.074	189
4	8981	0.075	192
4	9098	0.076	193
4	9220	0.077	196
4	9341	0.078	199
4	9462	0.079	202
4	9581	0.08	204
4	9703	0.081	207
4	9824	0.082	210
4	9945	0.083	213
5	68	0.001	7
5	71	0.001	4
5	74	0.001	1
5	77	0.001	0
5	190	0.002	8
5	193	0.002	5
5	196	0.002	2
5	199	0.002	0
5	311	0.003	8
5	314	0.003	5
5	317	0.003	2
5	320	0.003	0
5	430	0.004	7
5	433	0.004	4
5	436	0.004	1
5	439	0.004	0
5	552	0.005	8
5	555	0.005	5
5	558	0.005	2
5	561	0.005	0
5	673	0.006	8
5	676	0.006	5
5	679	0.006	2
5	682	0.006	0
5	794	0.007	8
5	797	0.007	5
5	800	0.007	2
5	803	0.007	0
5	913	0.008	7
5	916	0.008	4
5	919	0.008	1
5	922	0.008	0
5	1035	0.009	8
5	1038	0.009	5
5	1041	0.009	2
5	1044	0.009	0
5	1154	0.01	8
5	1157	0.01	5
5	1160	0.01	2
5	1163	0.01	0
5	1275	0.011	8
5	1278	0.011	5
5	1281	0.011	2
5	1284	0.011	0
5	1394	0.012	7
5	1397	0.012	4
5	1400	0.012	1
5	1403	0.012	0
5	1516	0.013	8
5	1519	0.013	5
5	1522	0.013	2
5	1525	0.013	0
5	1637	0.014	8
5	1640	0.014	5
5	1643	0.014	2
5	1646	0.014	0
5	1758	0.015	8
5	1761	0.015	5
5	1764	0.015	2
5	1767	0.015	0
5	1877	0.016	7
5	1880	0.016	4
5	1883	0.016	1
5	1886	0.016	0
5	1999	0.017	8
5	2002	0.017	5
5	2005	0.017	2
5	2008	0.017	0
5	2120	0.018	8
5	2123	0.018	5
5	2126	0.018	2
5	2129	0.018	0
5	2235	0.019	7
5	2238	0.019	4
5	2241	0.019	1
5	2244	0.019	0
5	2357	0.02	8
5	2360	0.02	5
5	2363	0.02	2
5	2366	0.02	0
5	2478	0.021	8
5	2481	0.021	5
5	2484	0.021	2
5	2487	0.021	0
5	2599	0.022	8
5	2602	0.022	5
5	2605	0.022	2
5	2608	0.022	0
5	2718	0.023	7
5	2721	0.023	4
5	2724	0.023	1
5	2727	0.023	0
5	2840	0.024	8
5	2843	0.024	5
5	2846	0.024	2
5	2849	0.024	0
5	2961	0.025	8
5	2964	0.025	5
5	2967	0.025	2
5	2970	0.025	0
5	3082	0.026	8
5	3085	0.026	5
5	3088	0.026	2
5	3091	0.026	0
5	3201	0.027	7
5	3204	0.027	4
5	3207	0.027	1
5	3210	0.027	0
5	3323	0.028	8
5	3326	0.028	5
5	3329	0.028	2
5	3332	0.028	0
5	3442	0.029	8
5	3445	0.029	5
5	3448	0.029	2
5	3451	0.029	0
5	3563	0.03	8
5	3566	0.03	5
5	3569	0.03	2
5	3572	0.03	0
5	3682	0.031	7
5	3685	0.031	4
5	3688	0.031	1
5	3691	0.031	0
5	3804	0.032	8
5	3807	0.032	5
5	3810	0.032	2
5	3813	0.032	0
5	3925	0.033	8
5	3928	0.033	5
5	3931	0.033	2
5	3934	0.033	0
5	4046	0.034	8
5	4049	0.034	5
5	4052	0.034	2
5	4055	0.034	0
5	4165	0.035	7
5	4168	0.035	4
5	4171	0.035	1
5	4174	0.035	0
5	4287	0.036	8
5	4290	0.036	5
5	4293	0.036	2
5	4296	0.036	0
5	4406	0.037	8
5	4409	0.037	5
5	4412	0.037	2
5	4415	0.037	0
5	4523	0.038	7
5	4526	0.038	4
5	4529	0.038	1
5	4532	0.038	0
5	4645	0.039	8
5	4648	0.039	5
5	4651	0.039	2
5	4654	0.039	0
5	4766	0.04	8
5	4769	0.04	5
5	4772	0.04	2
5	4775	0.04	0
5	4887	0.041	8
5	4890	0.041	5
5	4893	0.041	2
5	4896	0.041	0
5	5006	0.042	7
5	5009	0.042	4
5	5012	0.042	1
5	5015	0.042	0
5	5128	0.043	8
5	5131	0.043	5
5	5134	0.043	2
5	5137	0.043	0
5	5249	0.044	8
5	5252	0.044	5
5	5255	0.044	2
5	5258	0.044	0
5	5370	0.045	8
5	5373	0.045	5
5	5376	0.045	2
5	5379	0.045	0
5	5489	0.046	7
5	5492	0.046	4
5	5495	0.046	1
5	5498	0.046	0
5	5611	0.047	8
5	5614	0.047	5
5	5617	0.047	2
5	5620	0.047	0
5	5730	0.048	8
5	5733	0.048	5
5	5736	0.048	2
5	5739	0.048	0
5	5851	0.049	8
5	5854	0.049	5
5	5857	0.049	2
5	5860	0.049	0
5	5970	0.05	7
5	5973	0.05	4
5	5976	0.05	1
5	5979	0.05	0
5	6092	0.051	8
5	6095	0.051	5
5	6098	0.051	2
5	6101	0.051	0
5	6213	0.052	8
5	6216	0.052	5
5	6219	0.052	2
5	6222	0.052	0
5	6334	0.053	8
5	6337	0.053	5
5	6340	0.053	2
5	6343	0.053	0
5	6453	0.054	7
5	6456	0.054	4
5	6459	0.054	1
5	6462	0.054	0
5	6573	0.055	8
5	6576	0.055	5
5	6579	0.055	2
5	6582	0.055	0
5	6694	0.056	8
5	6697	0.056	5
5	6700	0.056	2
5	6703	0.056	0
5	6811	0.057	7
5	6814	0.057	4
5	6817	0.057	1
5	6820	0.057	0
5	6933	0.058	8
5	6936	0.058	5
5	6939	0.058	2
5	6942	0.058	0
5	7054	0.059	8
5	7057	0.059	5
5	7060	0.059	2
5	7063	0.059	0
5	7175	0.06	8
5	7178	0.06	5
5	7181	0.06	2
5	7184	0.06	0
5	7294	0.061	7
5	7297	0.061	4
5	7300	0.061	1
5	7303	0.061	0
5	7416	0.062	8
5	7419	0.062	5
5	7422	0.062	2
5	7425	0.062	0
5	7537	0.063	8
5	7540	0.063	5
5	7543	0.063	2
5	7546	0.063	0
5	7658	0.064	8
5	7661	0.064	5
5	7664	0.064	2
5	7667	0.064	0
5	7777	0.065	7
5	7780	0.065	4
5	7783	0.065	1
5	7786	0.065	0
5	7897	0.066	8
5	7900	0.066	5
5	7903	0.066	2
5	7906	0.066	0
5	8018	0.067	8
5	8021	0.067	5
5	8024	0.067	2
5	8027	0.067	0
5	8139	0.068	8
5	8142	0.068	5
5	8145	0.068	2
5	8148	0.068	0
5	8258	0.069	7
5	8261	0.069	4
5	8264	0.069	1
5	8267	0.069	0
5	8380	0.07	8
5	8383	0.07	5
5	8386	0.07	2
5	8389	0.07	0
5	8501	0.071	8
5	8504	0.071	5
5	8507	0.071	2
5	8510	0.071	0
5	8622	0.072	8
5	8625	0.072	5
5	8628	0.072	2
5	8631	0.072	0
5	8739	0.073	7
5	8742	0.073	4
5	8745	0.073	1
5	8748	0.073	0
5	8861	0.074	8
5	8864	0.074	5
5	8867	0.074	2
5	8870	0.074	0
5	8982	0.075	8
5	8985	0.075	5
5	8988	0.075	2
5	8991	0.075	0
5	9099	0.076	7
5	9102	0.076	4
5	9105	0.076	1
5	9108	0.076	0
5	9221	0.077	8
5	9224	0.077	5
5	9227	0.077	2
5	9230	0.077	0
5	9342	0.078	8
5	9345	0.078	5
5	9348	0.078	2
5	9351	0.078	0
5	9463	0.079	8
5	9466	0.079	5
5	9469	0.079	2
5	9472	0.079	0
5	9582	0.08	7
5	9585	0.08	4
5	9588	0.08	1
5	9591	0.08	0
5	9704	0.081	8
5	9707	0.081	5
5	9710	0.081	2
5	9713	0.081	0
5	9825	0.082	8
5	9828	0.082	5
5	9831	0.082	2
5	9834	0.082	0
5	9946	0.083	8
5	9949	0.083	5
5	9952	0.083	2
5	9955	0.083	0
6	69	0.001	8
6	72	0.001	6
6	75	0.001	4
6	78	0.001	2
6	80	0.001	0
6	191	0.002	9
6	194	0.002	7
6	197	0.002	5
6	200	0.002	3
6	202	0.002	1
6	204	0.002	0
6	312	0.003	9
6	315	0.003	7
6	318	0.003	5
6	321	0.003	3
6	323	0.003	1
6	325	0.003	0
6	431	0.004	9
6	434	0.004	7
6	437	0.004	5
6	440	0.004	3
6	442	0.004	1
6	444	0.004	0
6	553	0.005	9
6	556	0.005	7
6	559	0.005	5
6	562	0.005	3
6	564	0.005	1
6	566	0.005	0
6	674	0.006	9
6	677	0.006	7
6	680	0.006	5
6	683	0.006	3
6	685	0.006	1
6	687	0.006	0
6	795	0.007	9
6	798	0.007	7
6	801	0.007	5
6	804	0.007	3
6	806	0.007	1
6	808	0.007	0
6	914	0.008	9
6	917	0.008	7
6	920	0.008	5
6	923	0.008	3
6	925	0.008	1
6	927	0.008	0
6	1036	0.009	9
6	1039	0.009	7
6	1042	0.009	5
6	1045	0.009	3
6	1047	0.009	1
6	1049	0.009	0
6	1155	0.01	8
6	1158	0.01	6
6	1161	0.01	4
6	1164	0.01	2
6	1166	0.01	0
6	1276	0.011	9
6	1279	0.011	7
6	1282	0.011	5
6	1285	0.011	3
6	1287	0.011	1
6	1289	0.011	0
6	1395	0.012	9
6	1398	0.012	7
6	1401	0.012	5
6	1404	0.012	3
6	1406	0.012	1
6	1408	0.012	0
6	1517	0.013	9
6	1520	0.013	7
6	1523	0.013	5
6	1526	0.013	3
6	1528	0.013	1
6	1530	0.013	0
6	1638	0.014	9
6	1641	0.014	7
6	1644	0.014	5
6	1647	0.014	3
6	1649	0.014	1
6	1651	0.014	0
6	1759	0.015	9
6	1762	0.015	7
6	1765	0.015	5
6	1768	0.015	3
6	1770	0.015	1
6	1772	0.015	0
6	1878	0.016	9
6	1881	0.016	7
6	1884	0.016	5
6	1887	0.016	3
6	1889	0.016	1
6	1891	0.016	0
6	2000	0.017	9
6	2003	0.017	7
6	2006	0.017	5
6	2009	0.017	3
6	2011	0.017	1
6	2013	0.017	0
6	2121	0.018	9
6	2124	0.018	7
6	2127	0.018	5
6	2130	0.018	3
6	2132	0.018	1
6	2134	0.018	0
6	2236	0.019	8
6	2239	0.019	6
6	2242	0.019	4
6	2245	0.019	2
6	2247	0.019	0
6	2358	0.02	9
6	2361	0.02	7
6	2364	0.02	5
6	2367	0.02	3
6	2369	0.02	1
6	2371	0.02	0
6	2479	0.021	9
6	2482	0.021	7
6	2485	0.021	5
6	2488	0.021	3
6	2490	0.021	1
6	2492	0.021	0
6	2600	0.022	9
6	2603	0.022	7
6	2606	0.022	5
6	2609	0.022	3
6	2611	0.022	1
6	2613	0.022	0
6	2719	0.023	9
6	2722	0.023	7
6	2725	0.023	5
6	2728	0.023	3
6	2730	0.023	1
6	2732	0.023	0
6	2841	0.024	9
6	2844	0.024	7
6	2847	0.024	5
6	2850	0.024	3
6	2852	0.024	1
6	2854	0.024	0
6	2962	0.025	9
6	2965	0.025	7
6	2968	0.025	5
6	2971	0.025	3
6	2973	0.025	1
6	2975	0.025	0
6	3083	0.026	9
6	3086	0.026	7
6	3089	0.026	5
6	3092	0.026	3
6	3094	0.026	1
6	3096	0.026	0
6	3202	0.027	9
6	3205	0.027	7
6	3208	0.027	5
6	3211	0.027	3
6	3213	0.027	1
6	3215	0.027	0
6	3324	0.028	9
6	3327	0.028	7
6	3330	0.028	5
6	3333	0.028	3
6	3335	0.028	1
6	3337	0.028	0
6	3443	0.029	8
6	3446	0.029	6
6	3449	0.029	4
6	3452	0.029	2
6	3454	0.029	0
6	3564	0.03	9
6	3567	0.03	7
6	3570	0.03	5
6	3573	0.03	3
6	3575	0.03	1
6	3577	0.03	0
6	3683	0.031	9
6	3686	0.031	7
6	3689	0.031	5
6	3692	0.031	3
6	3694	0.031	1
6	3696	0.031	0
6	3805	0.032	9
6	3808	0.032	7
6	3811	0.032	5
6	3814	0.032	3
6	3816	0.032	1
6	3818	0.032	0
6	3926	0.033	9
6	3929	0.033	7
6	3932	0.033	5
6	3935	0.033	3
6	3937	0.033	1
6	3939	0.033	0
6	4047	0.034	9
6	4050	0.034	7
6	4053	0.034	5
6	4056	0.034	3
6	4058	0.034	1
6	4060	0.034	0
6	4166	0.035	9
6	4169	0.035	7
6	4172	0.035	5
6	4175	0.035	3
6	4177	0.035	1
6	4179	0.035	0
6	4288	0.036	9
6	4291	0.036	7
6	4294	0.036	5
6	4297	0.036	3
6	4299	0.036	1
6	4301	0.036	0
6	4407	0.037	9
6	4410	0.037	7
6	4413	0.037	5
6	4416	0.037	3
6	4418	0.037	1
6	4420	0.037	0
6	4524	0.038	8
6	4527	0.038	6
6	4530	0.038	4
6	4533	0.038	2
6	4535	0.038	0
6	4646	0.039	9
6	4649	0.039	7
6	4652	0.039	5
6	4655	0.039	3
6	4657	0.039	1
6	4659	0.039	0
6	4767	0.04	9
6	4770	0.04	7
6	4773	0.04	5
6	4776	0.04	3
6	4778	0.04	1
6	4780	0.04	0
6	4888	0.041	9
6	4891	0.041	7
6	4894	0.041	5
6	4897	0.041	3
6	4899	0.041	1
6	4901	0.041	0
6	5007	0.042	9
6	5010	0.042	7
6	5013	0.042	5
6	5016	0.042	3
6	5018	0.042	1
6	5020	0.042	0
6	5129	0.043	9
6	5132	0.043	7
6	5135	0.043	5
6	5138	0.043	3
6	5140	0.043	1
6	5142	0.043	0
6	5250	0.044	9
6	5253	0.044	7
6	5256	0.044	5
6	5259	0.044	3
6	5261	0.044	1
6	5263	0.044	0
6	5371	0.045	9
6	5374	0.045	7
6	5377	0.045	5
6	5380	0.045	3
6	5382	0.045	1
6	5384	0.045	0
6	5490	0.046	9
6	5493	0.046	7
6	5496	0.046	5
6	5499	0.046	3
6	5501	0.046	1
6	5503	0.046	0
6	5612	0.047	9
6	5615	0.047	7
6	5618	0.047	5
6	5621	0.047	3
6	5623	0.047	1
6	5625	0.047	0
6	5731	0.048	8
6	5734	0.048	6
6	5737	0.048	4
6	5740	0.048	2
6	5742	0.048	0
6	5852	0.049	9
6	5855	0.049	7
6	5858	0.049	5
6	5861	0.049	3
6	5863	0.049	1
6	5865	0.049	0
6	5971	0.05	9
6	5974	0.05	7
6	5977	0.05	5
6	5980	0.05	3
6	5982	0.05	1
6	5984	0.05	0
6	6093	0.051	9
6	6096	0.051	7
6	6099	0.051	5
6	6102	0.051	3
6	6104	0.051	1
6	6106	0.051	0
6	6214	0.052	9
6	6217	0.052	7
6	6220	0.052	5
6	6223	0.052	3
6	6225	0.052	1
6	6227	0.052	0
6	6335	0.053	9
6	6338	0.053	7
6	6341	0.053	5
6	6344	0.053	3
6	6346	0.053	1
6	6348	0.053	0
6	6454	0.054	9
6	6457	0.054	7
6	6460	0.054	5
6	6463	0.054	3
6	6465	0.054	1
6	6467	0.054	0
6	6574	0.055	9
6	6577	0.055	7
6	6580	0.055	5
6	6583	0.055	3
6	6585	0.055	1
6	6587	0.055	0
6	6695	0.056	9
6	6698	0.056	7
6	6701	0.056	5
6	6704	0.056	3
6	6706	0.056	1
6	6708	0.056	0
6	6812	0.057	8
6	6815	0.057	6
6	6818	0.057	4
6	6821	0.057	2
6	6823	0.057	0
6	6934	0.058	9
6	6937	0.058	7
6	6940	0.058	5
6	6943	0.058	3
6	6945	0.058	1
6	6947	0.058	0
6	7055	0.059	9
6	7058	0.059	7
6	7061	0.059	5
6	7064	0.059	3
6	7066	0.059	1
6	7068	0.059	0
6	7176	0.06	9
6	7179	0.06	7
6	7182	0.06	5
6	7185	0.06	3
6	7187	0.06	1
6	7189	0.06	0
6	7295	0.061	9
6	7298	0.061	7
6	7301	0.061	5
6	7304	0.061	3
6	7306	0.061	1
6	7308	0.061	0
6	7417	0.062	9
6	7420	0.062	7
6	7423	0.062	5
6	7426	0.062	3
6	7428	0.062	1
6	7430	0.062	0
6	7538	0.063	9
6	7541	0.063	7
6	7544	0.063	5
6	7547	0.063	3
6	7549	0.063	1
6	7551	0.063	0
6	7659	0.064	9
6	7662	0.064	7
6	7665	0.064	5
6	7668	0.064	3
6	7670	0.064	1
6	7672	0.064	0
6	7778	0.065	9
6	7781	0.065	7
6	7784	0.065	5
6	7787	0.065	3
6	7789	0.065	1
6	7791	0.065	0
6	7898	0.066	8
6	7901	0.066	6
6	7904	0.066	4
6	7907	0.066	2
6	7909	0.066	0
6	8019	0.067	9
6	8022	0.067	7
6	8025	0.067	5
6	8028	0.067	3
6	8030	0.067	1
6	8032	0.067	0
6	8140	0.068	9
6	8143	0.068	7
6	8146	0.068	5
6	8149	0.068	3
6	8151	0.068	1
6	8153	0.068	0
6	8259	0.069	9
6	8262	0.069	7
6	8265	0.069	5
6	8268	0.069	3
6	8270	0.069	1
6	8272	0.069	0
6	8381	0.07	9
6	8384	0.07	7
6	8387	0.07	5
6	8390	0.07	3
6	8392	0.07	1
6	8394	0.07	0
6	8502	0.071	9
6	8505	0.071	7
6	8508	0.071	5
6	8511	0.071	3
6	8513	0.071	1
6	8515	0.071	0
6	8623	0.072	9
6	8626	0.072	7
6	8629	0.072	5
6	8632	0.072	3
6	8634	0.072	1
6	8636	0.072	0
6	8740	0.073	9
6	8743	0.073	7
6	8746	0.073	5
6	8749	0.073	3
6	8751	0.073	1
6	8753	0.073	0
6	8862	0.074	9
6	8865	0.074	7
6	8868	0.074	5
6	8871	0.074	3
6	8873	0.074	1
6	8875	0.074	0
6	8983	0.075	9
6	8986	0.075	7
6	8989	0.075	5
6	8992	0.075	3
6	8994	0.075	1
6	8996	0.075	0
6	9100	0.076	8
6	9103	0.076	6
6	9106	0.076	4
6	9109	0.076	2
6	9111	0.076	0
6	9222	0.077	9
6	9225	0.077	7
6	9228	0.077	5
6	9231	0.077	3
6	9233	0.077	1
6	9235	0.077	0
6	9343	0.078	9
6	9346	0.078	7
6	9349	0.078	5
6	9352	0.078	3
6	9354	0.078	1
6	9356	0.078	0
6	9464	0.079	9
6	9467	0.079	7
6	9470	0.079	5
6	9473	0.079	3
6	9475	0.079	1
6	9477	0.079	0
6	9583	0.08	9
6	9586	0.08	7
6	9589	0.08	5
6	9592	0.08	3
6	9594	0.08	1
6	9596	0.08	0
6	9705	0.081	9
6	9708	0.081	7
6	9711	0.081	5
6	9714	0.081	3
6	9716	0.081	1
6	9718	0.081	0
6	9826	0.082	9
6	9829	0.082	7
6	9832	0.082	5
6	9835	0.082	3
6	9837	0.082	1
6	9839	0.082	0
6	9947	0.083	9
6	9950	0.083	7
6	9953	0.083	5
6	9956	0.083	3
6	9958	0.083	1
6	9960	0.083	0
7	70	0.001	9
7	73	0.001	8
7	76	0.001	7
7	79	0.001	6
7	81	0.001	5
7	82	0.001	4
7	83	0.001	3
7	84	0.001	2
7	85	0.001	1
7	86	0.001	0
7	192	0.002	10
7	195	0.002	9
7	198	0.002	8
7	201	0.002	7
7	203	0.002	6
7	205	0.002	5
7	206	0.002	4
7	207	0.002	3
7	313	0.003	13
7	316	0.003	12
7	319	0.003	11
7	322	0.003	10
7	324	0.003	9
7	326	0.003	8
7	327	0.003	7
7	328	0.003	6
7	432	0.004	16
7	435	0.004	15
7	438	0.004	14
7	441	0.004	13
7	443	0.004	12
7	445	0.004	11
7	446	0.004	10
7	447	0.004	9
7	448	0.004	8
7	554	0.005	18
7	557	0.005	17
7	560	0.005	16
7	563	0.005	15
7	565	0.005	14
7	567	0.005	13
7	568	0.005	12
7	569	0.005	11
7	675	0.006	21
7	678	0.006	20
7	681	0.006	19
7	684	0.006	18
7	686	0.006	17
7	688	0.006	16
7	689	0.006	15
7	690	0.006	14
7	796	0.007	24
7	799	0.007	23
7	802	0.007	22
7	805	0.007	21
7	807	0.007	20
7	809	0.007	19
7	810	0.007	18
7	811	0.007	17
7	915	0.008	27
7	918	0.008	26
7	921	0.008	25
7	924	0.008	24
7	926	0.008	23
7	928	0.008	22
7	929	0.008	21
7	930	0.008	20
7	931	0.008	19
7	1037	0.009	29
7	1040	0.009	28
7	1043	0.009	27
7	1046	0.009	26
7	1048	0.009	25
7	1050	0.009	24
7	1051	0.009	23
7	1052	0.009	22
7	1156	0.01	32
7	1159	0.01	31
7	1162	0.01	30
7	1165	0.01	29
7	1167	0.01	28
7	1168	0.01	27
7	1169	0.01	26
7	1170	0.01	25
7	1171	0.01	24
7	1277	0.011	34
7	1280	0.011	33
7	1283	0.011	32
7	1286	0.011	31
7	1288	0.011	30
7	1290	0.011	29
7	1291	0.011	28
7	1292	0.011	27
7	1396	0.012	37
7	1399	0.012	36
7	1402	0.012	35
7	1405	0.012	34
7	1407	0.012	33
7	1409	0.012	32
7	1410	0.012	31
7	1411	0.012	30
7	1412	0.012	29
7	1518	0.013	39
7	1521	0.013	38
7	1524	0.013	37
7	1527	0.013	36
7	1529	0.013	35
7	1531	0.013	34
7	1532	0.013	33
7	1533	0.013	32
7	1639	0.014	42
7	1642	0.014	41
7	1645	0.014	40
7	1648	0.014	39
7	1650	0.014	38
7	1652	0.014	37
7	1653	0.014	36
7	1654	0.014	35
7	1760	0.015	45
7	1763	0.015	44
7	1766	0.015	43
7	1769	0.015	42
7	1771	0.015	41
7	1773	0.015	40
7	1774	0.015	39
7	1775	0.015	38
7	1879	0.016	48
7	1882	0.016	47
7	1885	0.016	46
7	1888	0.016	45
7	1890	0.016	44
7	1892	0.016	43
7	1893	0.016	42
7	1894	0.016	41
7	1895	0.016	40
7	2001	0.017	50
7	2004	0.017	49
7	2007	0.017	48
7	2010	0.017	47
7	2012	0.017	46
7	2014	0.017	45
7	2015	0.017	44
7	2016	0.017	43
7	2122	0.018	53
7	2125	0.018	52
7	2128	0.018	51
7	2131	0.018	50
7	2133	0.018	49
7	2135	0.018	48
7	2136	0.018	47
7	2137	0.018	46
7	2237	0.019	55
7	2240	0.019	54
7	2243	0.019	53
7	2246	0.019	52
7	2248	0.019	51
7	2249	0.019	50
7	2250	0.019	49
7	2251	0.019	48
7	2252	0.019	47
7	2253	0.019	46
7	2359	0.02	56
7	2362	0.02	55
7	2365	0.02	54
7	2368	0.02	53
7	2370	0.02	52
7	2372	0.02	51
7	2373	0.02	50
7	2374	0.02	49
7	2480	0.021	59
7	2483	0.021	58
7	2486	0.021	57
7	2489	0.021	56
7	2491	0.021	55
7	2493	0.021	54
7	2494	0.021	53
7	2495	0.021	52
7	2601	0.022	62
7	2604	0.022	61
7	2607	0.022	60
7	2610	0.022	59
7	2612	0.022	58
7	2614	0.022	57
7	2615	0.022	56
7	2616	0.022	55
7	2720	0.023	65
7	2723	0.023	64
7	2726	0.023	63
7	2729	0.023	62
7	2731	0.023	61
7	2733	0.023	60
7	2734	0.023	59
7	2735	0.023	58
7	2736	0.023	57
7	2842	0.024	67
7	2845	0.024	66
7	2848	0.024	65
7	2851	0.024	64
7	2853	0.024	63
7	2855	0.024	62
7	2856	0.024	61
7	2857	0.024	60
7	2963	0.025	70
7	2966	0.025	69
7	2969	0.025	68
7	2972	0.025	67
7	2974	0.025	66
7	2976	0.025	65
7	2977	0.025	64
7	2978	0.025	63
7	3084	0.026	73
7	3087	0.026	72
7	3090	0.026	71
7	3093	0.026	70
7	3095	0.026	69
7	3097	0.026	68
7	3098	0.026	67
7	3099	0.026	66
7	3203	0.027	76
7	3206	0.027	75
7	3209	0.027	74
7	3212	0.027	73
7	3214	0.027	72
7	3216	0.027	71
7	3217	0.027	70
7	3218	0.027	69
7	3219	0.027	68
7	3325	0.028	78
7	3328	0.028	77
7	3331	0.028	76
7	3334	0.028	75
7	3336	0.028	74
7	3338	0.028	73
7	3339	0.028	72
7	3340	0.028	71
7	3444	0.029	81
7	3447	0.029	80
7	3450	0.029	79
7	3453	0.029	78
7	3455	0.029	77
7	3456	0.029	76
7	3457	0.029	75
7	3458	0.029	74
7	3459	0.029	73
7	3565	0.03	83
7	3568	0.03	82
7	3571	0.03	81
7	3574	0.03	80
7	3576	0.03	79
7	3578	0.03	78
7	3579	0.03	77
7	3580	0.03	76
7	3684	0.031	86
7	3687	0.031	85
7	3690	0.031	84
7	3693	0.031	83
7	3695	0.031	82
7	3697	0.031	81
7	3698	0.031	80
7	3699	0.031	79
7	3700	0.031	78
7	3806	0.032	88
7	3809	0.032	87
7	3812	0.032	86
7	3815	0.032	85
7	3817	0.032	84
7	3819	0.032	83
7	3820	0.032	82
7	3821	0.032	81
7	3927	0.033	91
7	3930	0.033	90
7	3933	0.033	89
7	3936	0.033	88
7	3938	0.033	87
7	3940	0.033	86
7	3941	0.033	85
7	3942	0.033	84
7	4048	0.034	94
7	4051	0.034	93
7	4054	0.034	92
7	4057	0.034	91
7	4059	0.034	90
7	4061	0.034	89
7	4062	0.034	88
7	4063	0.034	87
7	4167	0.035	97
7	4170	0.035	96
7	4173	0.035	95
7	4176	0.035	94
7	4178	0.035	93
7	4180	0.035	92
7	4181	0.035	91
7	4182	0.035	90
7	4183	0.035	89
7	4289	0.036	99
7	4292	0.036	98
7	4295	0.036	97
7	4298	0.036	96
7	4300	0.036	95
7	4302	0.036	94
7	4303	0.036	93
7	4304	0.036	92
7	4408	0.037	101
7	4411	0.037	100
7	4414	0.037	99
7	4417	0.037	98
7	4419	0.037	97
7	4421	0.037	96
7	4422	0.037	95
7	4423	0.037	94
7	4525	0.038	104
7	4528	0.038	103
7	4531	0.038	102
7	4534	0.038	101
7	4536	0.038	100
7	4537	0.038	99
7	4538	0.038	98
7	4539	0.038	97
7	4540	0.038	96
7	4541	0.038	95
7	4647	0.039	105
7	4650	0.039	104
7	4653	0.039	103
7	4656	0.039	102
7	4658	0.039	101
7	4660	0.039	100
7	4661	0.039	99
7	4662	0.039	98
7	4768	0.04	108
7	4771	0.04	107
7	4774	0.04	106
7	4777	0.04	105
7	4779	0.04	104
7	4781	0.04	103
7	4782	0.04	102
7	4783	0.04	101
7	4889	0.041	111
7	4892	0.041	110
7	4895	0.041	109
7	4898	0.041	108
7	4900	0.041	107
7	4902	0.041	106
7	4903	0.041	105
7	4904	0.041	104
7	5008	0.042	114
7	5011	0.042	113
7	5014	0.042	112
7	5017	0.042	111
7	5019	0.042	110
7	5021	0.042	109
7	5022	0.042	108
7	5023	0.042	107
7	5024	0.042	106
7	5130	0.043	116
7	5133	0.043	115
7	5136	0.043	114
7	5139	0.043	113
7	5141	0.043	112
7	5143	0.043	111
7	5144	0.043	110
7	5145	0.043	109
7	5251	0.044	119
7	5254	0.044	118
7	5257	0.044	117
7	5260	0.044	116
7	5262	0.044	115
7	5264	0.044	114
7	5265	0.044	113
7	5266	0.044	112
7	5372	0.045	122
7	5375	0.045	121
7	5378	0.045	120
7	5381	0.045	119
7	5383	0.045	118
7	5385	0.045	117
7	5386	0.045	116
7	5387	0.045	115
7	5491	0.046	125
7	5494	0.046	124
7	5497	0.046	123
7	5500	0.046	122
7	5502	0.046	121
7	5504	0.046	120
7	5505	0.046	119
7	5506	0.046	118
7	5507	0.046	117
7	5613	0.047	127
7	5616	0.047	126
7	5619	0.047	125
7	5622	0.047	124
7	5624	0.047	123
7	5626	0.047	122
7	5627	0.047	121
7	5628	0.047	120
7	5732	0.048	130
7	5735	0.048	129
7	5738	0.048	128
7	5741	0.048	127
7	5743	0.048	126
7	5744	0.048	125
7	5745	0.048	124
7	5746	0.048	123
7	5747	0.048	122
7	5853	0.049	132
7	5856	0.049	131
7	5859	0.049	130
7	5862	0.049	129
7	5864	0.049	128
7	5866	0.049	127
7	5867	0.049	126
7	5868	0.049	125
7	5972	0.05	135
7	5975	0.05	134
7	5978	0.05	133
7	5981	0.05	132
7	5983	0.05	131
7	5985	0.05	130
7	5986	0.05	129
7	5987	0.05	128
7	5988	0.05	127
7	6094	0.051	137
7	6097	0.051	136
7	6100	0.051	135
7	6103	0.051	134
7	6105	0.051	133
7	6107	0.051	132
7	6108	0.051	131
7	6109	0.051	130
7	6215	0.052	140
7	6218	0.052	139
7	6221	0.052	138
7	6224	0.052	137
7	6226	0.052	136
7	6228	0.052	135
7	6229	0.052	134
7	6230	0.052	133
7	6336	0.053	143
7	6339	0.053	142
7	6342	0.053	141
7	6345	0.053	140
7	6347	0.053	139
7	6349	0.053	138
7	6350	0.053	137
7	6351	0.053	136
7	6455	0.054	146
7	6458	0.054	145
7	6461	0.054	144
7	6464	0.054	143
7	6466	0.054	142
7	6468	0.054	141
7	6469	0.054	140
7	6470	0.054	139
7	6471	0.054	138
7	6575	0.055	147
7	6578	0.055	146
7	6581	0.055	145
7	6584	0.055	144
7	6586	0.055	143
7	6588	0.055	142
7	6589	0.055	141
7	6590	0.055	140
7	6696	0.056	150
7	6699	0.056	149
7	6702	0.056	148
7	6705	0.056	147
7	6707	0.056	146
7	6709	0.056	145
7	6710	0.056	144
7	6711	0.056	143
7	6813	0.057	153
7	6816	0.057	152
7	6819	0.057	151
7	6822	0.057	150
7	6824	0.057	149
7	6825	0.057	148
7	6826	0.057	147
7	6827	0.057	146
7	6828	0.057	145
7	6829	0.057	144
7	6935	0.058	154
7	6938	0.058	153
7	6941	0.058	152
7	6944	0.058	151
7	6946	0.058	150
7	6948	0.058	149
7	6949	0.058	148
7	6950	0.058	147
7	7056	0.059	157
7	7059	0.059	156
7	7062	0.059	155
7	7065	0.059	154
7	7067	0.059	153
7	7069	0.059	152
7	7070	0.059	151
7	7071	0.059	150
7	7177	0.06	160
7	7180	0.06	159
7	7183	0.06	158
7	7186	0.06	157
7	7188	0.06	156
7	7190	0.06	155
7	7191	0.06	154
7	7192	0.06	153
7	7296	0.061	163
7	7299	0.061	162
7	7302	0.061	161
7	7305	0.061	160
7	7307	0.061	159
7	7309	0.061	158
7	7310	0.061	157
7	7311	0.061	156
7	7312	0.061	155
7	7418	0.062	165
7	7421	0.062	164
7	7424	0.062	163
7	7427	0.062	162
7	7429	0.062	161
7	7431	0.062	160
7	7432	0.062	159
7	7433	0.062	158
7	7539	0.063	168
7	7542	0.063	167
7	7545	0.063	166
7	7548	0.063	165
7	7550	0.063	164
7	7552	0.063	163
7	7553	0.063	162
7	7554	0.063	161
7	7660	0.064	171
7	7663	0.064	170
7	7666	0.064	169
7	7669	0.064	168
7	7671	0.064	167
7	7673	0.064	166
7	7674	0.064	165
7	7675	0.064	164
7	7779	0.065	174
7	7782	0.065	173
7	7785	0.065	172
7	7788	0.065	171
7	7790	0.065	170
7	7792	0.065	169
7	7793	0.065	168
7	7794	0.065	167
7	7795	0.065	166
7	7899	0.066	176
7	7902	0.066	175
7	7905	0.066	174
7	7908	0.066	173
7	7910	0.066	172
7	7911	0.066	171
7	7912	0.066	170
7	7913	0.066	169
7	7914	0.066	168
7	8020	0.067	178
7	8023	0.067	177
7	8026	0.067	176
7	8029	0.067	175
7	8031	0.067	174
7	8033	0.067	173
7	8034	0.067	172
7	8035	0.067	171
7	8141	0.068	181
7	8144	0.068	180
7	8147	0.068	179
7	8150	0.068	178
7	8152	0.068	177
7	8154	0.068	176
7	8155	0.068	175
7	8156	0.068	174
7	8260	0.069	184
7	8263	0.069	183
7	8266	0.069	182
7	8269	0.069	181
7	8271	0.069	180
7	8273	0.069	179
7	8274	0.069	178
7	8275	0.069	177
7	8276	0.069	176
7	8382	0.07	186
7	8385	0.07	185
7	8388	0.07	184
7	8391	0.07	183
7	8393	0.07	182
7	8395	0.07	181
7	8396	0.07	180
7	8397	0.07	179
7	8503	0.071	189
7	8506	0.071	188
7	8509	0.071	187
7	8512	0.071	186
7	8514	0.071	185
7	8516	0.071	184
7	8517	0.071	183
7	8518	0.071	182
7	8624	0.072	192
7	8627	0.072	191
7	8630	0.072	190
7	8633	0.072	189
7	8635	0.072	188
7	8637	0.072	187
7	8638	0.072	186
7	8639	0.072	185
7	8741	0.073	194
7	8744	0.073	193
7	8747	0.073	192
7	8750	0.073	191
7	8752	0.073	190
7	8754	0.073	189
7	8755	0.073	188
7	8756	0.073	187
7	8757	0.073	186
7	8863	0.074	196
7	8866	0.074	195
7	8869	0.074	194
7	8872	0.074	193
7	8874	0.074	192
7	8876	0.074	191
7	8877	0.074	190
7	8878	0.074	189
7	8984	0.075	199
7	8987	0.075	198
7	8990	0.075	197
7	8993	0.075	196
7	8995	0.075	195
7	8997	0.075	194
7	8998	0.075	193
7	8999	0.075	192
7	9101	0.076	202
7	9104	0.076	201
7	9107	0.076	200
7	9110	0.076	199
7	9112	0.076	198
7	9113	0.076	197
7	9114	0.076	196
7	9115	0.076	195
7	9116	0.076	194
7	9117	0.076	193
7	9223	0.077	203
7	9226	0.077	202
7	9229	0.077	201
7	9232	0.077	200
7	9234	0.077	199
7	9236	0.077	198
7	9237	0.077	197
7	9238	0.077	196
7	9344	0.078	206
7	9347	0.078	205
7	9350	0.078	204
7	9353	0.078	203
7	9355	0.078	202
7	9357	0.078	201
7	9358	0.078	200
7	9359	0.078	199
7	9465	0.079	209
7	9468	0.079	208
7	9471	0.079	207
7	9474	0.079	206
7	9476	0.079	205
7	9478	0.079	204
7	9479	0.079	203
7	9480	0.079	202
7	9584	0.08	212
7	9587	0.08	211
7	9590	0.08	210
7	9593	0.08	209
7	9595	0.08	208
7	9597	0.08	207
7	9598	0.08	206
7	9599	0.08	205
7	9600	0.08	204
7	9706	0.081	214
7	9709	0.081	213
7	9712	0.081	212
7	9715	0.081	211
7	9717	0.081	210
7	9719	0.081	209
7	9720	0.081	208
7	9721	0.081	207
7	9827	0.082	217
7	9830	0.082	216
7	9833	0.082	215
7	9836	0.082	214
7	9838	0.082	213
7	9840	0.082	212
7	9841	0.082	211
7	9842	0.082	210
7	9948	0.083	220
7	9951	0.083	219
7	9954	0.083	218
7	9957	0.083	217
7	9959	0.083	216
7	9961	0.083	215
7	9962	0.083	214
7	9963	0.083	213
8	87	0.001	0.000906861205
8	88	0.001	0.00081372241
8	89	0.001	0.000720583615
8	90	0.001	0.000908203561
8	91	0.001	0.000816407122
8	92	0.001	0.000908635756
8	93	0.001	0.00062744482
8	94	0.001	0.000534306025
8	95	0.001	0.00044116723
8	96	0.001	0.000724610683
8	97	0.001	0.000632814244
8	98	0.001	0.000817271512
8	99	0.001	0.000348028435
8	100	0.001	0.00025488964
8	101	0.001	0.000161750845
8	102	0.001	0.000541017805
8	103	0.001	0.000449221366
8	104	0.001	0.000725907268
8	105	0.001	6.861205e-005
8	106	0.001	0.000357424927
8	107	0.001	0.000265628488
8	108	0.001	0.000634543024
8	109	0.001	0.000173832049
8	110	0.001	8.203561e-005
8	111	0.001	0.00054317878
8	112	0.001	0.000451814536
8	113	0.001	0.000360450292
8	114	0.001	0.000269086048
8	115	0.001	0.000177721804
8	116	0.001	8.635756e-005
8	208	0.002	0.000975473255
8	209	0.002	0.00088233446
8	210	0.002	0.000789195665
8	211	0.002	0.000990239171
8	212	0.002	0.000898442732
8	213	0.002	0.000994993316
8	214	0.002	0.00069605687
8	215	0.002	0.000602918075
8	216	0.002	0.00050977928
8	217	0.002	0.000806646293
8	218	0.002	0.000714849854
8	219	0.002	0.000903629072
8	220	0.002	0.000416640485
8	221	0.002	0.00032350169
8	222	0.002	0.000230362895
8	223	0.002	0.000623053415
8	224	0.002	0.000531256976
8	225	0.002	0.000812264828
8	226	0.002	0.0001372241
8	227	0.002	4.4085305e-005
8	228	0.002	0.000439460537
8	229	0.002	0.000347664098
8	230	0.002	0.000720900584
8	231	0.002	0.000255867659
8	232	0.002	0.00016407122
8	233	0.002	0.00062953634
8	234	0.002	7.2274781e-005
8	235	0.002	0.000538172096
8	236	0.002	0.000446807852
8	237	0.002	0.000355443608
8	329	0.003	0.00095094651
8	330	0.003	0.000857807715
8	331	0.003	0.00076466892
8	332	0.003	0.000980478342
8	333	0.003	0.000888681903
8	334	0.003	0.001264079364
8	335	0.003	0.000671530125
8	336	0.003	0.00057839133
8	337	0.003	0.000485252535
8	338	0.003	0.000796885464
8	339	0.003	0.000705089025
8	340	0.003	0.00117271512
8	341	0.003	0.00039211374
8	342	0.003	0.000298974945
8	343	0.003	0.00020583615
8	344	0.003	0.000613292586
8	345	0.003	0.000521496147
8	346	0.003	0.001081350876
8	347	0.003	0.000112697355
8	348	0.003	1.955856e-005
8	349	0.003	0.000429699708
8	350	0.003	0.000337903269
8	351	0.003	0.000989986632
8	352	0.003	0.00024610683
8	353	0.003	0.000154310391
8	354	0.003	0.000898622388
8	355	0.003	6.2513952e-005
8	356	0.003	0.000807258144
8	357	0.003	0.0007158939
8	358	0.003	0.000624529656
8	449	0.004	0.000926419765
8	450	0.004	0.00083328097
8	451	0.004	0.000740142175
8	452	0.004	0.000970717513
8	453	0.004	0.000878921074
8	454	0.004	0.001533165412
8	455	0.004	0.00064700338
8	456	0.004	0.000553864585
8	457	0.004	0.00046072579
8	458	0.004	0.000787124635
8	459	0.004	0.000695328196
8	460	0.004	0.001441801168
8	461	0.004	0.000367586995
8	462	0.004	0.0002744482
8	463	0.004	0.000181309405
8	464	0.004	0.000603531757
8	465	0.004	0.000511735318
8	466	0.004	0.001350436924
8	467	0.004	8.817061e-005
8	468	0.004	0.000419938879
8	469	0.004	0.00032814244
8	470	0.004	0.00125907268
8	471	0.004	0.000236346001
8	472	0.004	0.000144549562
8	473	0.004	0.001167708436
8	474	0.004	5.2753123e-005
8	475	0.004	0.001076344192
8	476	0.004	0.000984979948
8	477	0.004	0.000893615704
8	478	0.004	0.00080225146
8	570	0.005	0.000995031815
8	571	0.005	0.00090189302
8	572	0.005	0.000808754225
8	573	0.005	0.000960956684
8	574	0.005	0.000869160245
8	575	0.005	0.001710887216
8	576	0.005	0.00071561543
8	577	0.005	0.000622476635
8	578	0.005	0.00052933784
8	579	0.005	0.000777363806
8	580	0.005	0.000685567367
8	581	0.005	0.001619522972
8	582	0.005	0.000436199045
8	583	0.005	0.00034306025
8	584	0.005	0.000249921455
8	585	0.005	0.000593770928
8	586	0.005	0.000501974489
8	587	0.005	0.001528158728
8	588	0.005	0.00015678266
8	589	0.005	6.3643865e-005
8	590	0.005	0.00041017805
8	591	0.005	0.000318381611
8	592	0.005	0.001436794484
8	593	0.005	0.000226585172
8	594	0.005	0.000134788733
8	595	0.005	0.00134543024
8	596	0.005	4.2992294e-005
8	597	0.005	0.001254065996
8	598	0.005	0.001162701752
8	599	0.005	0.001071337508
8	691	0.006	0.00097050507
8	692	0.006	0.000877366275
8	693	0.006	0.00078422748
8	694	0.006	0.000951195855
8	695	0.006	0.000859399416
8	696	0.006	0.001979973264
8	697	0.006	0.000691088685
8	698	0.006	0.00059794989
8	699	0.006	0.000504811095
8	700	0.006	0.000767602977
8	701	0.006	0.000675806538
8	702	0.006	0.00188860902
8	703	0.006	0.0004116723
8	704	0.006	0.000318533505
8	705	0.006	0.00022539471
8	706	0.006	0.000584010099
8	707	0.006	0.00049221366
8	708	0.006	0.001797244776
8	709	0.006	0.000132255915
8	710	0.006	3.911712e-005
8	711	0.006	0.000400417221
8	712	0.006	0.000308620782
8	713	0.006	0.001705880532
8	714	0.006	0.000216824343
8	715	0.006	0.000125027904
8	716	0.006	0.001614516288
8	717	0.006	3.3231465e-005
8	718	0.006	0.001523152044
8	719	0.006	0.0014317878
8	720	0.006	0.001340423556
8	812	0.007	0.000945978325
8	813	0.007	0.00085283953
8	814	0.007	0.000759700735
8	815	0.007	0.000941435026
8	816	0.007	0.000849638587
8	817	0.007	0.002249059312
8	818	0.007	0.00066656194
8	819	0.007	0.000573423145
8	820	0.007	0.00048028435
8	821	0.007	0.000757842148
8	822	0.007	0.000666045709
8	823	0.007	0.002157695068
8	824	0.007	0.000387145555
8	825	0.007	0.00029400676
8	826	0.007	0.000200867965
8	827	0.007	0.00057424927
8	828	0.007	0.000482452831
8	829	0.007	0.002066330824
8	830	0.007	0.00010772917
8	831	0.007	1.4590375e-005
8	832	0.007	0.000390656392
8	833	0.007	0.000298859953
8	834	0.007	0.00197496658
8	835	0.007	0.000207063514
8	836	0.007	0.000115267075
8	837	0.007	0.001883602336
8	838	0.007	2.3470636e-005
8	839	0.007	0.001792238092
8	840	0.007	0.001700873848
8	841	0.007	0.001609509604
8	932	0.008	0.00092145158
8	933	0.008	0.000828312785
8	934	0.008	0.00073517399
8	935	0.008	0.000931674197
8	936	0.008	0.000839877758
8	937	0.008	0.00251814536
8	938	0.008	0.000642035195
8	939	0.008	0.0005488964
8	940	0.008	0.000455757605
8	941	0.008	0.000748081319
8	942	0.008	0.00065628488
8	943	0.008	0.002426781116
8	944	0.008	0.00036261881
8	945	0.008	0.000269480015
8	946	0.008	0.00017634122
8	947	0.008	0.000564488441
8	948	0.008	0.000472692002
8	949	0.008	0.002335416872
8	950	0.008	8.3202425e-005
8	951	0.008	0.000380895563
8	952	0.008	0.000289099124
8	953	0.008	0.002244052628
8	954	0.008	0.000197302685
8	955	0.008	0.000105506246
8	956	0.008	0.002152688384
8	957	0.008	1.3709807e-005
8	958	0.008	0.00206132414
8	959	0.008	0.001969959896
8	960	0.008	0.001878595652
8	961	0.008	0.001787231408
8	1053	0.009	0.00099006363
8	1054	0.009	0.000896924835
8	1055	0.009	0.00080378604
8	1056	0.009	0.000921913368
8	1057	0.009	0.000830116929
8	1058	0.009	0.002695867164
8	1059	0.009	0.000710647245
8	1060	0.009	0.00061750845
8	1061	0.009	0.000524369655
8	1062	0.009	0.00073832049
8	1063	0.009	0.000646524051
8	1064	0.009	0.00260450292
8	1065	0.009	0.00043123086
8	1066	0.009	0.000338092065
8	1067	0.009	0.00024495327
8	1068	0.009	0.000554727612
8	1069	0.009	0.000462931173
8	1070	0.009	0.002513138676
8	1071	0.009	0.000151814475
8	1072	0.009	5.867568e-005
8	1073	0.009	0.000371134734
8	1074	0.009	0.000279338295
8	1075	0.009	0.002421774432
8	1076	0.009	0.000187541856
8	1077	0.009	9.5745417e-005
8	1078	0.009	0.002330410188
8	1079	0.009	3.948978e-006
8	1080	0.009	0.002239045944
8	1081	0.009	0.0021476817
8	1082	0.009	0.002056317456
8	1172	0.01	0.000965536885
8	1173	0.01	0.00087239809
8	1174	0.01	0.000779259295
8	1175	0.01	0.000912152539
8	1176	0.01	0.0008203561
8	1177	0.01	0.002964953212
8	1178	0.01	0.0006861205
8	1179	0.01	0.000592981705
8	1180	0.01	0.00049984291
8	1181	0.01	0.000728559661
8	1182	0.01	0.000636763222
8	1183	0.01	0.002873588968
8	1184	0.01	0.000406704115
8	1185	0.01	0.00031356532
8	1186	0.01	0.000220426525
8	1187	0.01	0.000544966783
8	1188	0.01	0.000453170344
8	1189	0.01	0.002782224724
8	1190	0.01	0.00012728773
8	1191	0.01	3.4148935e-005
8	1192	0.01	0.000361373905
8	1193	0.01	0.000269577466
8	1194	0.01	0.00269086048
8	1195	0.01	0.000177781027
8	1196	0.01	8.5984588e-005
8	1197	0.01	0.002599496236
8	1198	0.01	0.002508131992
8	1199	0.01	0.002416767748
8	1200	0.01	0.002325403504
8	1201	0.01	0.00223403926
8	1293	0.011	0.00094101014
8	1294	0.011	0.000847871345
8	1295	0.011	0.00075473255
8	1296	0.011	0.000994188149
8	1297	0.011	0.00090239171
8	1298	0.011	0.003142675016
8	1299	0.011	0.000661593755
8	1300	0.011	0.00056845496
8	1301	0.011	0.000475316165
8	1302	0.011	0.000810595271
8	1303	0.011	0.000718798832
8	1304	0.011	0.003051310772
8	1305	0.011	0.00038217737
8	1306	0.011	0.000289038575
8	1307	0.011	0.00019589978
8	1308	0.011	0.000627002393
8	1309	0.011	0.000535205954
8	1310	0.011	0.002959946528
8	1311	0.011	0.000102760985
8	1312	0.011	9.62219e-006
8	1313	0.011	0.000443409515
8	1314	0.011	0.000351613076
8	1315	0.011	0.002868582284
8	1316	0.011	0.000259816637
8	1317	0.011	0.000168020198
8	1318	0.011	0.00277721804
8	1319	0.011	7.6223759e-005
8	1320	0.011	0.002685853796
8	1321	0.011	0.002594489552
8	1322	0.011	0.002503125308
8	1413	0.012	0.000916483395
8	1414	0.012	0.0008233446
8	1415	0.012	0.000730205805
8	1416	0.012	0.00098442732
8	1417	0.012	0.000892630881
8	1418	0.012	0.003411761064
8	1419	0.012	0.00063706701
8	1420	0.012	0.000543928215
8	1421	0.012	0.00045078942
8	1422	0.012	0.000800834442
8	1423	0.012	0.000709038003
8	1424	0.012	0.00332039682
8	1425	0.012	0.000357650625
8	1426	0.012	0.00026451183
8	1427	0.012	0.000171373035
8	1428	0.012	0.000617241564
8	1429	0.012	0.000525445125
8	1430	0.012	0.003229032576
8	1431	0.012	7.823424e-005
8	1432	0.012	0.000433648686
8	1433	0.012	0.000341852247
8	1434	0.012	0.003137668332
8	1435	0.012	0.000250055808
8	1436	0.012	0.000158259369
8	1437	0.012	0.003046304088
8	1438	0.012	6.646293e-005
8	1439	0.012	0.002954939844
8	1440	0.012	0.0028635756
8	1441	0.012	0.002772211356
8	1442	0.012	0.002680847112
8	1534	0.013	0.000985095445
8	1535	0.013	0.00089195665
8	1536	0.013	0.000798817855
8	1537	0.013	0.000974666491
8	1538	0.013	0.000882870052
8	1539	0.013	0.003589482868
8	1540	0.013	0.00070567906
8	1541	0.013	0.000612540265
8	1542	0.013	0.00051940147
8	1543	0.013	0.000791073613
8	1544	0.013	0.000699277174
8	1545	0.013	0.003498118624
8	1546	0.013	0.000426262675
8	1547	0.013	0.00033312388
8	1548	0.013	0.000239985085
8	1549	0.013	0.000607480735
8	1550	0.013	0.000515684296
8	1551	0.013	0.00340675438
8	1552	0.013	0.00014684629
8	1553	0.013	5.3707495e-005
8	1554	0.013	0.000423887857
8	1555	0.013	0.000332091418
8	1556	0.013	0.003315390136
8	1557	0.013	0.000240294979
8	1558	0.013	0.00014849854
8	1559	0.013	0.003224025892
8	1560	0.013	5.6702101e-005
8	1561	0.013	0.003132661648
8	1562	0.013	0.003041297404
8	1563	0.013	0.00294993316
8	1655	0.014	0.0009605687
8	1656	0.014	0.000867429905
8	1657	0.014	0.00077429111
8	1658	0.014	0.000964905662
8	1659	0.014	0.000873109223
8	1660	0.014	0.003858568916
8	1661	0.014	0.000681152315
8	1662	0.014	0.00058801352
8	1663	0.014	0.000494874725
8	1664	0.014	0.000781312784
8	1665	0.014	0.000689516345
8	1666	0.014	0.003767204672
8	1667	0.014	0.00040173593
8	1668	0.014	0.000308597135
8	1669	0.014	0.00021545834
8	1670	0.014	0.000597719906
8	1671	0.014	0.000505923467
8	1672	0.014	0.003675840428
8	1673	0.014	0.000122319545
8	1674	0.014	2.918075e-005
8	1675	0.014	0.000414127028
8	1676	0.014	0.000322330589
8	1677	0.014	0.003584476184
8	1678	0.014	0.00023053415
8	1679	0.014	0.000138737711
8	1680	0.014	0.00349311194
8	1681	0.014	4.6941272e-005
8	1682	0.014	0.003401747696
8	1683	0.014	0.003310383452
8	1684	0.014	0.003219019208
8	1776	0.015	0.000936041955
8	1777	0.015	0.00084290316
8	1778	0.015	0.000749764365
8	1779	0.015	0.000955144833
8	1780	0.015	0.000863348394
8	1781	0.015	0.004127654964
8	1782	0.015	0.00065662557
8	1783	0.015	0.000563486775
8	1784	0.015	0.00047034798
8	1785	0.015	0.000771551955
8	1786	0.015	0.000679755516
8	1787	0.015	0.00403629072
8	1788	0.015	0.000377209185
8	1789	0.015	0.00028407039
8	1790	0.015	0.000190931595
8	1791	0.015	0.000587959077
8	1792	0.015	0.000496162638
8	1793	0.015	0.003944926476
8	1794	0.015	9.77928e-005
8	1795	0.015	4.654005e-006
8	1796	0.015	0.000404366199
8	1797	0.015	0.00031256976
8	1798	0.015	0.003853562232
8	1799	0.015	0.000220773321
8	1800	0.015	0.000128976882
8	1801	0.015	0.003762197988
8	1802	0.015	3.7180443e-005
8	1803	0.015	0.003670833744
8	1804	0.015	0.0035794695
8	1805	0.015	0.003488105256
8	1896	0.016	0.00091151521
8	1897	0.016	0.000818376415
8	1898	0.016	0.00072523762
8	1899	0.016	0.000945384004
8	1900	0.016	0.000853587565
8	1901	0.016	0.004396741012
8	1902	0.016	0.000632098825
8	1903	0.016	0.00053896003
8	1904	0.016	0.000445821235
8	1905	0.016	0.000761791126
8	1906	0.016	0.000669994687
8	1907	0.016	0.004305376768
8	1908	0.016	0.00035268244
8	1909	0.016	0.000259543645
8	1910	0.016	0.00016640485
8	1911	0.016	0.000578198248
8	1912	0.016	0.000486401809
8	1913	0.016	0.004214012524
8	1914	0.016	7.3266055e-005
8	1915	0.016	0.00039460537
8	1916	0.016	0.000302808931
8	1917	0.016	0.00412264828
8	1918	0.016	0.000211012492
8	1919	0.016	0.000119216053
8	1920	0.016	0.004031284036
8	1921	0.016	2.7419614e-005
8	1922	0.016	0.003939919792
8	1923	0.016	0.003848555548
8	1924	0.016	0.003757191304
8	1925	0.016	0.00366582706
8	2017	0.017	0.00098012726
8	2018	0.017	0.000886988465
8	2019	0.017	0.00079384967
8	2020	0.017	0.000935623175
8	2021	0.017	0.000843826736
8	2022	0.017	0.004574462816
8	2023	0.017	0.000700710875
8	2024	0.017	0.00060757208
8	2025	0.017	0.000514433285
8	2026	0.017	0.000752030297
8	2027	0.017	0.000660233858
8	2028	0.017	0.004483098572
8	2029	0.017	0.00042129449
8	2030	0.017	0.000328155695
8	2031	0.017	0.0002350169
8	2032	0.017	0.000568437419
8	2033	0.017	0.00047664098
8	2034	0.017	0.004391734328
8	2035	0.017	0.000141878105
8	2036	0.017	4.873931e-005
8	2037	0.017	0.000384844541
8	2038	0.017	0.000293048102
8	2039	0.017	0.004300370084
8	2040	0.017	0.000201251663
8	2041	0.017	0.000109455224
8	2042	0.017	0.00420900584
8	2043	0.017	1.7658785e-005
8	2044	0.017	0.004117641596
8	2045	0.017	0.004026277352
8	2046	0.017	0.003934913108
8	2138	0.018	0.000955600515
8	2139	0.018	0.00086246172
8	2140	0.018	0.000769322925
8	2141	0.018	0.000925862346
8	2142	0.018	0.000834065907
8	2143	0.018	0.004843548864
8	2144	0.018	0.00067618413
8	2145	0.018	0.000583045335
8	2146	0.018	0.00048990654
8	2147	0.018	0.000742269468
8	2148	0.018	0.000650473029
8	2149	0.018	0.00475218462
8	2150	0.018	0.000396767745
8	2151	0.018	0.00030362895
8	2152	0.018	0.000210490155
8	2153	0.018	0.00055867659
8	2154	0.018	0.000466880151
8	2155	0.018	0.004660820376
8	2156	0.018	0.00011735136
8	2157	0.018	2.4212565e-005
8	2158	0.018	0.000375083712
8	2159	0.018	0.000283287273
8	2160	0.018	0.004569456132
8	2161	0.018	0.000191490834
8	2162	0.018	9.9694395e-005
8	2163	0.018	0.004478091888
8	2164	0.018	7.897956e-006
8	2165	0.018	0.004386727644
8	2166	0.018	0.0042953634
8	2167	0.018	0.004203999156
8	2254	0.019	0.00093107377
8	2255	0.019	0.000837934975
8	2256	0.019	0.00074479618
8	2257	0.019	0.000916101517
8	2258	0.019	0.000824305078
8	2259	0.019	0.005112634912
8	2260	0.019	0.000651657385
8	2261	0.019	0.00055851859
8	2262	0.019	0.000465379795
8	2263	0.019	0.000732508639
8	2264	0.019	0.0006407122
8	2265	0.019	0.005021270668
8	2266	0.019	0.000372241
8	2267	0.019	0.000279102205
8	2268	0.019	0.00018596341
8	2269	0.019	0.000548915761
8	2270	0.019	0.000457119322
8	2271	0.019	0.004929906424
8	2272	0.019	9.2824615e-005
8	2273	0.019	0.000365322883
8	2274	0.019	0.000273526444
8	2275	0.019	0.00483854218
8	2276	0.019	0.000181730005
8	2277	0.019	8.9933566e-005
8	2278	0.019	0.004747177936
8	2279	0.019	0.004655813692
8	2280	0.019	0.004564449448
8	2281	0.019	0.004473085204
8	2282	0.019	0.00438172096
8	2283	0.019	0.004290356716
8	2375	0.02	0.00099968582
8	2376	0.02	0.000906547025
8	2377	0.02	0.00081340823
8	2378	0.02	0.000998137127
8	2379	0.02	0.000906340688
8	2380	0.02	0.005198992472
8	2381	0.02	0.000720269435
8	2382	0.02	0.00062713064
8	2383	0.02	0.000533991845
8	2384	0.02	0.000814544249
8	2385	0.02	0.00072274781
8	2386	0.02	0.005107628228
8	2387	0.02	0.00044085305
8	2388	0.02	0.000347714255
8	2389	0.02	0.00025457546
8	2390	0.02	0.000630951371
8	2391	0.02	0.000539154932
8	2392	0.02	0.005016263984
8	2393	0.02	0.000161436665
8	2394	0.02	6.829787e-005
8	2395	0.02	0.000447358493
8	2396	0.02	0.000355562054
8	2397	0.02	0.00492489974
8	2398	0.02	0.000263765615
8	2399	0.02	0.000171969176
8	2400	0.02	0.004833535496
8	2401	0.02	8.0172737e-005
8	2402	0.02	0.004742171252
8	2403	0.02	0.004650807008
8	2404	0.02	0.004559442764
8	2496	0.021	0.000975159075
8	2497	0.021	0.00088202028
8	2498	0.021	0.000788881485
8	2499	0.021	0.000988376298
8	2500	0.021	0.000896579859
8	2501	0.021	0.00546807852
8	2502	0.021	0.00069574269
8	2503	0.021	0.000602603895
8	2504	0.021	0.0005094651
8	2505	0.021	0.00080478342
8	2506	0.021	0.000712986981
8	2507	0.021	0.005376714276
8	2508	0.021	0.000416326305
8	2509	0.021	0.00032318751
8	2510	0.021	0.000230048715
8	2511	0.021	0.000621190542
8	2512	0.021	0.000529394103
8	2513	0.021	0.005285350032
8	2514	0.021	0.00013690992
8	2515	0.021	4.3771125e-005
8	2516	0.021	0.000437597664
8	2517	0.021	0.000345801225
8	2518	0.021	0.005193985788
8	2519	0.021	0.000254004786
8	2520	0.021	0.000162208347
8	2521	0.021	0.005102621544
8	2522	0.021	7.0411908e-005
8	2523	0.021	0.0050112573
8	2524	0.021	0.004919893056
8	2525	0.021	0.004828528812
8	2617	0.022	0.00095063233
8	2618	0.022	0.000857493535
8	2619	0.022	0.00076435474
8	2620	0.022	0.000978615469
8	2621	0.022	0.00088681903
8	2622	0.022	0.005737164568
8	2623	0.022	0.000671215945
8	2624	0.022	0.00057807715
8	2625	0.022	0.000484938355
8	2626	0.022	0.000795022591
8	2627	0.022	0.000703226152
8	2628	0.022	0.005645800324
8	2629	0.022	0.00039179956
8	2630	0.022	0.000298660765
8	2631	0.022	0.00020552197
8	2632	0.022	0.000611429713
8	2633	0.022	0.000519633274
8	2634	0.022	0.00555443608
8	2635	0.022	0.000112383175
8	2636	0.022	1.924438e-005
8	2637	0.022	0.000427836835
8	2638	0.022	0.000336040396
8	2639	0.022	0.005463071836
8	2640	0.022	0.000244243957
8	2641	0.022	0.000152447518
8	2642	0.022	0.005371707592
8	2643	0.022	6.0651079e-005
8	2644	0.022	0.005280343348
8	2645	0.022	0.005188979104
8	2646	0.022	0.00509761486
8	2737	0.023	0.000926105585
8	2738	0.023	0.00083296679
8	2739	0.023	0.000739827995
8	2740	0.023	0.00096885464
8	2741	0.023	0.000877058201
8	2742	0.023	0.006006250616
8	2743	0.023	0.0006466892
8	2744	0.023	0.000553550405
8	2745	0.023	0.00046041161
8	2746	0.023	0.000785261762
8	2747	0.023	0.000693465323
8	2748	0.023	0.005914886372
8	2749	0.023	0.000367272815
8	2750	0.023	0.00027413402
8	2751	0.023	0.000180995225
8	2752	0.023	0.000601668884
8	2753	0.023	0.000509872445
8	2754	0.023	0.005823522128
8	2755	0.023	8.785643e-005
8	2756	0.023	0.000418076006
8	2757	0.023	0.000326279567
8	2758	0.023	0.005732157884
8	2759	0.023	0.000234483128
8	2760	0.023	0.000142686689
8	2761	0.023	0.00564079364
8	2762	0.023	5.089025e-005
8	2763	0.023	0.005549429396
8	2764	0.023	0.005458065152
8	2765	0.023	0.005366700908
8	2766	0.023	0.005275336664
8	2858	0.024	0.000994717635
8	2859	0.024	0.00090157884
8	2860	0.024	0.000808440045
8	2861	0.024	0.000959093811
8	2862	0.024	0.000867297372
8	2863	0.024	0.00618397242
8	2864	0.024	0.00071530125
8	2865	0.024	0.000622162455
8	2866	0.024	0.00052902366
8	2867	0.024	0.000775500933
8	2868	0.024	0.000683704494
8	2869	0.024	0.006092608176
8	2870	0.024	0.000435884865
8	2871	0.024	0.00034274607
8	2872	0.024	0.000249607275
8	2873	0.024	0.000591908055
8	2874	0.024	0.000500111616
8	2875	0.024	0.006001243932
8	2876	0.024	0.00015646848
8	2877	0.024	6.3329685e-005
8	2878	0.024	0.000408315177
8	2879	0.024	0.000316518738
8	2880	0.024	0.005909879688
8	2881	0.024	0.000224722299
8	2882	0.024	0.00013292586
8	2883	0.024	0.005818515444
8	2884	0.024	4.1129421e-005
8	2885	0.024	0.0057271512
8	2886	0.024	0.005635786956
8	2887	0.024	0.005544422712
8	2979	0.025	0.00097019089
8	2980	0.025	0.000877052095
8	2981	0.025	0.0007839133
8	2982	0.025	0.000949332982
8	2983	0.025	0.000857536543
8	2984	0.025	0.006453058468
8	2985	0.025	0.000690774505
8	2986	0.025	0.00059763571
8	2987	0.025	0.000504496915
8	2988	0.025	0.000765740104
8	2989	0.025	0.000673943665
8	2990	0.025	0.006361694224
8	2991	0.025	0.00041135812
8	2992	0.025	0.000318219325
8	2993	0.025	0.00022508053
8	2994	0.025	0.000582147226
8	2995	0.025	0.000490350787
8	2996	0.025	0.00627032998
8	2997	0.025	0.000131941735
8	2998	0.025	3.880294e-005
8	2999	0.025	0.000398554348
8	3000	0.025	0.000306757909
8	3001	0.025	0.006178965736
8	3002	0.025	0.00021496147
8	3003	0.025	0.000123165031
8	3004	0.025	0.006087601492
8	3005	0.025	3.1368592e-005
8	3006	0.025	0.005996237248
8	3007	0.025	0.005904873004
8	3008	0.025	0.00581350876
8	3100	0.026	0.000945664145
8	3101	0.026	0.00085252535
8	3102	0.026	0.000759386555
8	3103	0.026	0.000939572153
8	3104	0.026	0.000847775714
8	3105	0.026	0.006722144516
8	3106	0.026	0.00066624776
8	3107	0.026	0.000573108965
8	3108	0.026	0.00047997017
8	3109	0.026	0.000755979275
8	3110	0.026	0.000664182836
8	3111	0.026	0.006630780272
8	3112	0.026	0.000386831375
8	3113	0.026	0.00029369258
8	3114	0.026	0.000200553785
8	3115	0.026	0.000572386397
8	3116	0.026	0.000480589958
8	3117	0.026	0.006539416028
8	3118	0.026	0.00010741499
8	3119	0.026	1.4276195e-005
8	3120	0.026	0.000388793519
8	3121	0.026	0.00029699708
8	3122	0.026	0.006448051784
8	3123	0.026	0.000205200641
8	3124	0.026	0.000113404202
8	3125	0.026	0.00635668754
8	3126	0.026	2.1607763e-005
8	3127	0.026	0.006265323296
8	3128	0.026	0.006173959052
8	3129	0.026	0.006082594808
8	3220	0.027	0.0009211374
8	3221	0.027	0.000827998605
8	3222	0.027	0.00073485981
8	3223	0.027	0.000929811324
8	3224	0.027	0.000838014885
8	3225	0.027	0.006991230564
8	3226	0.027	0.000641721015
8	3227	0.027	0.00054858222
8	3228	0.027	0.000455443425
8	3229	0.027	0.000746218446
8	3230	0.027	0.000654422007
8	3231	0.027	0.00689986632
8	3232	0.027	0.00036230463
8	3233	0.027	0.000269165835
8	3234	0.027	0.00017602704
8	3235	0.027	0.000562625568
8	3236	0.027	0.000470829129
8	3237	0.027	0.006808502076
8	3238	0.027	8.2888245e-005
8	3239	0.027	0.00037903269
8	3240	0.027	0.000287236251
8	3241	0.027	0.006717137832
8	3242	0.027	0.000195439812
8	3243	0.027	0.000103643373
8	3244	0.027	0.006625773588
8	3245	0.027	1.1846934e-005
8	3246	0.027	0.006534409344
8	3247	0.027	0.0064430451
8	3248	0.027	0.006351680856
8	3249	0.027	0.006260316612
8	3341	0.028	0.00098974945
8	3342	0.028	0.000896610655
8	3343	0.028	0.00080347186
8	3344	0.028	0.000920050495
8	3345	0.028	0.000828254056
8	3346	0.028	0.007168952368
8	3347	0.028	0.000710333065
8	3348	0.028	0.00061719427
8	3349	0.028	0.000524055475
8	3350	0.028	0.000736457617
8	3351	0.028	0.000644661178
8	3352	0.028	0.007077588124
8	3353	0.028	0.00043091668
8	3354	0.028	0.000337777885
8	3355	0.028	0.00024463909
8	3356	0.028	0.000552864739
8	3357	0.028	0.0004610683
8	3358	0.028	0.00698622388
8	3359	0.028	0.000151500295
8	3360	0.028	5.83615e-005
8	3361	0.028	0.000369271861
8	3362	0.028	0.000277475422
8	3363	0.028	0.006894859636
8	3364	0.028	0.000185678983
8	3365	0.028	9.3882544e-005
8	3366	0.028	0.006803495392
8	3367	0.028	2.086105e-006
8	3368	0.028	0.006712131148
8	3369	0.028	0.006620766904
8	3370	0.028	0.00652940266
8	3460	0.029	0.000965222705
8	3461	0.029	0.00087208391
8	3462	0.029	0.000778945115
8	3463	0.029	0.000910289666
8	3464	0.029	0.000818493227
8	3465	0.029	0.007438038416
8	3466	0.029	0.00068580632
8	3467	0.029	0.000592667525
8	3468	0.029	0.00049952873
8	3469	0.029	0.000726696788
8	3470	0.029	0.000634900349
8	3471	0.029	0.007346674172
8	3472	0.029	0.000406389935
8	3473	0.029	0.00031325114
8	3474	0.029	0.000220112345
8	3475	0.029	0.00054310391
8	3476	0.029	0.000451307471
8	3477	0.029	0.007255309928
8	3478	0.029	0.00012697355
8	3479	0.029	3.3834755e-005
8	3480	0.029	0.000359511032
8	3481	0.029	0.000267714593
8	3482	0.029	0.007163945684
8	3483	0.029	0.000175918154
8	3484	0.029	8.4121715e-005
8	3485	0.029	0.00707258144
8	3486	0.029	0.006981217196
8	3487	0.029	0.006889852952
8	3488	0.029	0.006798488708
8	3489	0.029	0.006707124464
8	3581	0.03	0.00094069596
8	3582	0.03	0.000847557165
8	3583	0.03	0.00075441837
8	3584	0.03	0.000992325276
8	3585	0.03	0.000900528837
8	3586	0.03	0.00761576022
8	3587	0.03	0.000661279575
8	3588	0.03	0.00056814078
8	3589	0.03	0.000475001985
8	3590	0.03	0.000808732398
8	3591	0.03	0.000716935959
8	3592	0.03	0.007524395976
8	3593	0.03	0.00038186319
8	3594	0.03	0.000288724395
8	3595	0.03	0.0001955856
8	3596	0.03	0.00062513952
8	3597	0.03	0.000533343081
8	3598	0.03	0.007433031732
8	3599	0.03	0.000102446805
8	3600	0.03	9.30801e-006
8	3601	0.03	0.000441546642
8	3602	0.03	0.000349750203
8	3603	0.03	0.007341667488
8	3604	0.03	0.000257953764
8	3605	0.03	0.000166157325
8	3606	0.03	0.007250303244
8	3607	0.03	7.4360886e-005
8	3608	0.03	0.007158939
8	3609	0.03	0.007067574756
8	3610	0.03	0.006976210512
8	3701	0.031	0.000916169215
8	3702	0.031	0.00082303042
8	3703	0.031	0.000729891625
8	3704	0.031	0.000982564447
8	3705	0.031	0.000890768008
8	3706	0.031	0.007884846268
8	3707	0.031	0.00063675283
8	3708	0.031	0.000543614035
8	3709	0.031	0.00045047524
8	3710	0.031	0.000798971569
8	3711	0.031	0.00070717513
8	3712	0.031	0.007793482024
8	3713	0.031	0.000357336445
8	3714	0.031	0.00026419765
8	3715	0.031	0.000171058855
8	3716	0.031	0.000615378691
8	3717	0.031	0.000523582252
8	3718	0.031	0.00770211778
8	3719	0.031	7.792006e-005
8	3720	0.031	0.000431785813
8	3721	0.031	0.000339989374
8	3722	0.031	0.007610753536
8	3723	0.031	0.000248192935
8	3724	0.031	0.000156396496
8	3725	0.031	0.007519389292
8	3726	0.031	6.4600057e-005
8	3727	0.031	0.007428025048
8	3728	0.031	0.007336660804
8	3729	0.031	0.00724529656
8	3730	0.031	0.007153932316
8	3822	0.032	0.000984781265
8	3823	0.032	0.00089164247
8	3824	0.032	0.000798503675
8	3825	0.032	0.000972803618
8	3826	0.032	0.000881007179
8	3827	0.032	0.008062568072
8	3828	0.032	0.00070536488
8	3829	0.032	0.000612226085
8	3830	0.032	0.00051908729
8	3831	0.032	0.00078921074
8	3832	0.032	0.000697414301
8	3833	0.032	0.007971203828
8	3834	0.032	0.000425948495
8	3835	0.032	0.0003328097
8	3836	0.032	0.000239670905
8	3837	0.032	0.000605617862
8	3838	0.032	0.000513821423
8	3839	0.032	0.007879839584
8	3840	0.032	0.00014653211
8	3841	0.032	5.3393315e-005
8	3842	0.032	0.000422024984
8	3843	0.032	0.000330228545
8	3844	0.032	0.00778847534
8	3845	0.032	0.000238432106
8	3846	0.032	0.000146635667
8	3847	0.032	0.007697111096
8	3848	0.032	5.4839228e-005
8	3849	0.032	0.007605746852
8	3850	0.032	0.007514382608
8	3851	0.032	0.007423018364
8	3943	0.033	0.00096025452
8	3944	0.033	0.000867115725
8	3945	0.033	0.00077397693
8	3946	0.033	0.000963042789
8	3947	0.033	0.00087124635
8	3948	0.033	0.00833165412
8	3949	0.033	0.000680838135
8	3950	0.033	0.00058769934
8	3951	0.033	0.000494560545
8	3952	0.033	0.000779449911
8	3953	0.033	0.000687653472
8	3954	0.033	0.008240289876
8	3955	0.033	0.00040142175
8	3956	0.033	0.000308282955
8	3957	0.033	0.00021514416
8	3958	0.033	0.000595857033
8	3959	0.033	0.000504060594
8	3960	0.033	0.008148925632
8	3961	0.033	0.000122005365
8	3962	0.033	2.886657e-005
8	3963	0.033	0.000412264155
8	3964	0.033	0.000320467716
8	3965	0.033	0.008057561388
8	3966	0.033	0.000228671277
8	3967	0.033	0.000136874838
8	3968	0.033	0.007966197144
8	3969	0.033	4.5078399e-005
8	3970	0.033	0.0078748329
8	3971	0.033	0.007783468656
8	3972	0.033	0.007692104412
8	4064	0.034	0.000935727775
8	4065	0.034	0.00084258898
8	4066	0.034	0.000749450185
8	4067	0.034	0.00095328196
8	4068	0.034	0.000861485521
8	4069	0.034	0.008600740168
8	4070	0.034	0.00065631139
8	4071	0.034	0.000563172595
8	4072	0.034	0.0004700338
8	4073	0.034	0.000769689082
8	4074	0.034	0.000677892643
8	4075	0.034	0.008509375924
8	4076	0.034	0.000376895005
8	4077	0.034	0.00028375621
8	4078	0.034	0.000190617415
8	4079	0.034	0.000586096204
8	4080	0.034	0.000494299765
8	4081	0.034	0.00841801168
8	4082	0.034	9.747862e-005
8	4083	0.034	4.339825e-006
8	4084	0.034	0.000402503326
8	4085	0.034	0.000310706887
8	4086	0.034	0.008326647436
8	4087	0.034	0.000218910448
8	4088	0.034	0.000127114009
8	4089	0.034	0.008235283192
8	4090	0.034	3.531757e-005
8	4091	0.034	0.008143918948
8	4092	0.034	0.008052554704
8	4093	0.034	0.00796119046
8	4184	0.035	0.00091120103
8	4185	0.035	0.000818062235
8	4186	0.035	0.00072492344
8	4187	0.035	0.000943521131
8	4188	0.035	0.000851724692
8	4189	0.035	0.008869826216
8	4190	0.035	0.000631784645
8	4191	0.035	0.00053864585
8	4192	0.035	0.000445507055
8	4193	0.035	0.000759928253
8	4194	0.035	0.000668131814
8	4195	0.035	0.008778461972
8	4196	0.035	0.00035236826
8	4197	0.035	0.000259229465
8	4198	0.035	0.00016609067
8	4199	0.035	0.000576335375
8	4200	0.035	0.000484538936
8	4201	0.035	0.008687097728
8	4202	0.035	7.2951875e-005
8	4203	0.035	0.000392742497
8	4204	0.035	0.000300946058
8	4205	0.035	0.008595733484
8	4206	0.035	0.000209149619
8	4207	0.035	0.00011735318
8	4208	0.035	0.00850436924
8	4209	0.035	2.5556741e-005
8	4210	0.035	0.008413004996
8	4211	0.035	0.008321640752
8	4212	0.035	0.008230276508
8	4213	0.035	0.008138912264
8	4305	0.036	0.00097981308
8	4306	0.036	0.000886674285
8	4307	0.036	0.00079353549
8	4308	0.036	0.000933760302
8	4309	0.036	0.000841963863
8	4310	0.036	0.00904754802
8	4311	0.036	0.000700396695
8	4312	0.036	0.0006072579
8	4313	0.036	0.000514119105
8	4314	0.036	0.000750167424
8	4315	0.036	0.000658370985
8	4316	0.036	0.008956183776
8	4317	0.036	0.00042098031
8	4318	0.036	0.000327841515
8	4319	0.036	0.00023470272
8	4320	0.036	0.000566574546
8	4321	0.036	0.000474778107
8	4322	0.036	0.008864819532
8	4323	0.036	0.000141563925
8	4324	0.036	4.842513e-005
8	4325	0.036	0.000382981668
8	4326	0.036	0.000291185229
8	4327	0.036	0.008773455288
8	4328	0.036	0.00019938879
8	4329	0.036	0.000107592351
8	4330	0.036	0.008682091044
8	4331	0.036	1.5795912e-005
8	4332	0.036	0.0085907268
8	4333	0.036	0.008499362556
8	4334	0.036	0.008407998312
8	4424	0.037	0.000955286335
8	4425	0.037	0.00086214754
8	4426	0.037	0.000769008745
8	4427	0.037	0.000923999473
8	4428	0.037	0.000832203034
8	4429	0.037	0.009316634068
8	4430	0.037	0.00067586995
8	4431	0.037	0.000582731155
8	4432	0.037	0.00048959236
8	4433	0.037	0.000740406595
8	4434	0.037	0.000648610156
8	4435	0.037	0.009225269824
8	4436	0.037	0.000396453565
8	4437	0.037	0.00030331477
8	4438	0.037	0.000210175975
8	4439	0.037	0.000556813717
8	4440	0.037	0.000465017278
8	4441	0.037	0.00913390558
8	4442	0.037	0.00011703718
8	4443	0.037	2.3898385e-005
8	4444	0.037	0.000373220839
8	4445	0.037	0.0002814244
8	4446	0.037	0.009042541336
8	4447	0.037	0.000189627961
8	4448	0.037	9.7831522e-005
8	4449	0.037	0.008951177092
8	4450	0.037	6.035083e-006
8	4451	0.037	0.008859812848
8	4452	0.037	0.008768448604
8	4453	0.037	0.00867708436
8	4542	0.038	0.00093075959
8	4543	0.038	0.000837620795
8	4544	0.038	0.000744482
8	4545	0.038	0.000914238644
8	4546	0.038	0.000822442205
8	4547	0.038	0.009585720116
8	4548	0.038	0.000651343205
8	4549	0.038	0.00055820441
8	4550	0.038	0.000465065615
8	4551	0.038	0.000730645766
8	4552	0.038	0.000638849327
8	4553	0.038	0.009494355872
8	4554	0.038	0.00037192682
8	4555	0.038	0.000278788025
8	4556	0.038	0.00018564923
8	4557	0.038	0.000547052888
8	4558	0.038	0.000455256449
8	4559	0.038	0.009402991628
8	4560	0.038	9.2510435e-005
8	4561	0.038	0.00036346001
8	4562	0.038	0.000271663571
8	4563	0.038	0.009311627384
8	4564	0.038	0.000179867132
8	4565	0.038	8.8070693e-005
8	4566	0.038	0.00922026314
8	4567	0.038	0.009128898896
8	4568	0.038	0.009037534652
8	4569	0.038	0.008946170408
8	4570	0.038	0.008854806164
8	4571	0.038	0.00876344192
8	4663	0.039	0.00099937164
8	4664	0.039	0.000906232845
8	4665	0.039	0.00081309405
8	4666	0.039	0.000996274254
8	4667	0.039	0.000904477815
8	4668	0.039	0.009672077676
8	4669	0.039	0.000719955255
8	4670	0.039	0.00062681646
8	4671	0.039	0.000533677665
8	4672	0.039	0.000812681376
8	4673	0.039	0.000720884937
8	4674	0.039	0.009580713432
8	4675	0.039	0.00044053887
8	4676	0.039	0.000347400075
8	4677	0.039	0.00025426128
8	4678	0.039	0.000629088498
8	4679	0.039	0.000537292059
8	4680	0.039	0.009489349188
8	4681	0.039	0.000161122485
8	4682	0.039	6.798369e-005
8	4683	0.039	0.00044549562
8	4684	0.039	0.000353699181
8	4685	0.039	0.009397984944
8	4686	0.039	0.000261902742
8	4687	0.039	0.000170106303
8	4688	0.039	0.0093066207
8	4689	0.039	7.8309864e-005
8	4690	0.039	0.009215256456
8	4691	0.039	0.009123892212
8	4692	0.039	0.009032527968
8	4784	0.04	0.000974844895
8	4785	0.04	0.0008817061
8	4786	0.04	0.000788567305
8	4787	0.04	0.000986513425
8	4788	0.04	0.000894716986
8	4789	0.04	0.009941163724
8	4790	0.04	0.00069542851
8	4791	0.04	0.000602289715
8	4792	0.04	0.00050915092
8	4793	0.04	0.000802920547
8	4794	0.04	0.000711124108
8	4795	0.04	0.00984979948
8	4796	0.04	0.000416012125
8	4797	0.04	0.00032287333
8	4798	0.04	0.000229734535
8	4799	0.04	0.000619327669
8	4800	0.04	0.00052753123
8	4801	0.04	0.009758435236
8	4802	0.04	0.00013659574
8	4803	0.04	4.3456945e-005
8	4804	0.04	0.000435734791
8	4805	0.04	0.000343938352
8	4806	0.04	0.009667070992
8	4807	0.04	0.000252141913
8	4808	0.04	0.000160345474
8	4809	0.04	0.009575706748
8	4810	0.04	6.8549035e-005
8	4811	0.04	0.009484342504
8	4812	0.04	0.00939297826
8	4813	0.04	0.009301614016
8	4905	0.041	0.00095031815
8	4906	0.041	0.000857179355
8	4907	0.041	0.00076404056
8	4908	0.041	0.000976752596
8	4909	0.041	0.000884956157
8	4910	0.041	0.010210249772
8	4911	0.041	0.000670901765
8	4912	0.041	0.00057776297
8	4913	0.041	0.000484624175
8	4914	0.041	0.000793159718
8	4915	0.041	0.000701363279
8	4916	0.041	0.010118885528
8	4917	0.041	0.00039148538
8	4918	0.041	0.000298346585
8	4919	0.041	0.00020520779
8	4920	0.041	0.00060956684
8	4921	0.041	0.000517770401
8	4922	0.041	0.010027521284
8	4923	0.041	0.000112068995
8	4924	0.041	1.89302e-005
8	4925	0.041	0.000425973962
8	4926	0.041	0.000334177523
8	4927	0.041	0.00993615704
8	4928	0.041	0.000242381084
8	4929	0.041	0.000150584645
8	4930	0.041	0.009844792796
8	4931	0.041	5.8788206e-005
8	4932	0.041	0.009753428552
8	4933	0.041	0.009662064308
8	4934	0.041	0.009570700064
8	5025	0.042	0.000925791405
8	5026	0.042	0.00083265261
8	5027	0.042	0.000739513815
8	5028	0.042	0.000966991767
8	5029	0.042	0.000875195328
8	5030	0.042	0.01047933582
8	5031	0.042	0.00064637502
8	5032	0.042	0.000553236225
8	5033	0.042	0.00046009743
8	5034	0.042	0.000783398889
8	5035	0.042	0.00069160245
8	5036	0.042	0.010387971576
8	5037	0.042	0.000366958635
8	5038	0.042	0.00027381984
8	5039	0.042	0.000180681045
8	5040	0.042	0.000599806011
8	5041	0.042	0.000508009572
8	5042	0.042	0.010296607332
8	5043	0.042	8.754225e-005
8	5044	0.042	0.000416213133
8	5045	0.042	0.000324416694
8	5046	0.042	0.010205243088
8	5047	0.042	0.000232620255
8	5048	0.042	0.000140823816
8	5049	0.042	0.010113878844
8	5050	0.042	4.9027377e-005
8	5051	0.042	0.0100225146
8	5052	0.042	0.009931150356
8	5053	0.042	0.009839786112
8	5054	0.042	0.009748421868
8	5146	0.043	0.000994403455
8	5147	0.043	0.00090126466
8	5148	0.043	0.000808125865
8	5149	0.043	0.000957230938
8	5150	0.043	0.000865434499
8	5151	0.043	0.010657057624
8	5152	0.043	0.00071498707
8	5153	0.043	0.000621848275
8	5154	0.043	0.00052870948
8	5155	0.043	0.00077363806
8	5156	0.043	0.000681841621
8	5157	0.043	0.01056569338
8	5158	0.043	0.000435570685
8	5159	0.043	0.00034243189
8	5160	0.043	0.000249293095
8	5161	0.043	0.000590045182
8	5162	0.043	0.000498248743
8	5163	0.043	0.010474329136
8	5164	0.043	0.0001561543
8	5165	0.043	6.3015505e-005
8	5166	0.043	0.000406452304
8	5167	0.043	0.000314655865
8	5168	0.043	0.010382964892
8	5169	0.043	0.000222859426
8	5170	0.043	0.000131062987
8	5171	0.043	0.010291600648
8	5172	0.043	3.9266548e-005
8	5173	0.043	0.010200236404
8	5174	0.043	0.01010887216
8	5175	0.043	0.010017507916
8	5267	0.044	0.00096987671
8	5268	0.044	0.000876737915
8	5269	0.044	0.00078359912
8	5270	0.044	0.000947470109
8	5271	0.044	0.00085567367
8	5272	0.044	0.010926143672
8	5273	0.044	0.000690460325
8	5274	0.044	0.00059732153
8	5275	0.044	0.000504182735
8	5276	0.044	0.000763877231
8	5277	0.044	0.000672080792
8	5278	0.044	0.010834779428
8	5279	0.044	0.00041104394
8	5280	0.044	0.000317905145
8	5281	0.044	0.00022476635
8	5282	0.044	0.000580284353
8	5283	0.044	0.000488487914
8	5284	0.044	0.010743415184
8	5285	0.044	0.000131627555
8	5286	0.044	3.848876e-005
8	5287	0.044	0.000396691475
8	5288	0.044	0.000304895036
8	5289	0.044	0.01065205094
8	5290	0.044	0.000213098597
8	5291	0.044	0.000121302158
8	5292	0.044	0.010560686696
8	5293	0.044	2.9505719e-005
8	5294	0.044	0.010469322452
8	5295	0.044	0.010377958208
8	5296	0.044	0.010286593964
8	5388	0.045	0.000945349965
8	5389	0.045	0.00085221117
8	5390	0.045	0.000759072375
8	5391	0.045	0.00093770928
8	5392	0.045	0.000845912841
8	5393	0.045	0.01119522972
8	5394	0.045	0.00066593358
8	5395	0.045	0.000572794785
8	5396	0.045	0.00047965599
8	5397	0.045	0.000754116402
8	5398	0.045	0.000662319963
8	5399	0.045	0.011103865476
8	5400	0.045	0.000386517195
8	5401	0.045	0.0002933784
8	5402	0.045	0.000200239605
8	5403	0.045	0.000570523524
8	5404	0.045	0.000478727085
8	5405	0.045	0.011012501232
8	5406	0.045	0.00010710081
8	5407	0.045	1.3962015e-005
8	5408	0.045	0.000386930646
8	5409	0.045	0.000295134207
8	5410	0.045	0.010921136988
8	5411	0.045	0.000203337768
8	5412	0.045	0.000111541329
8	5413	0.045	0.010829772744
8	5414	0.045	1.974489e-005
8	5415	0.045	0.0107384085
8	5416	0.045	0.010647044256
8	5417	0.045	0.010555680012
8	5508	0.046	0.00092082322
8	5509	0.046	0.000827684425
8	5510	0.046	0.00073454563
8	5511	0.046	0.000927948451
8	5512	0.046	0.000836152012
8	5513	0.046	0.011464315768
8	5514	0.046	0.000641406835
8	5515	0.046	0.00054826804
8	5516	0.046	0.000455129245
8	5517	0.046	0.000744355573
8	5518	0.046	0.000652559134
8	5519	0.046	0.011372951524
8	5520	0.046	0.00036199045
8	5521	0.046	0.000268851655
8	5522	0.046	0.00017571286
8	5523	0.046	0.000560762695
8	5524	0.046	0.000468966256
8	5525	0.046	0.01128158728
8	5526	0.046	8.2574065e-005
8	5527	0.046	0.000377169817
8	5528	0.046	0.000285373378
8	5529	0.046	0.011190223036
8	5530	0.046	0.000193576939
8	5531	0.046	0.0001017805
8	5532	0.046	0.011098858792
8	5533	0.046	9.984061e-006
8	5534	0.046	0.011007494548
8	5535	0.046	0.010916130304
8	5536	0.046	0.01082476606
8	5537	0.046	0.010733401816
8	5629	0.047	0.00098943527
8	5630	0.047	0.000896296475
8	5631	0.047	0.00080315768
8	5632	0.047	0.000918187622
8	5633	0.047	0.000826391183
8	5634	0.047	0.011642037572
8	5635	0.047	0.000710018885
8	5636	0.047	0.00061688009
8	5637	0.047	0.000523741295
8	5638	0.047	0.000734594744
8	5639	0.047	0.000642798305
8	5640	0.047	0.011550673328
8	5641	0.047	0.0004306025
8	5642	0.047	0.000337463705
8	5643	0.047	0.00024432491
8	5644	0.047	0.000551001866
8	5645	0.047	0.000459205427
8	5646	0.047	0.011459309084
8	5647	0.047	0.000151186115
8	5648	0.047	5.804732e-005
8	5649	0.047	0.000367408988
8	5650	0.047	0.000275612549
8	5651	0.047	0.01136794484
8	5652	0.047	0.00018381611
8	5653	0.047	9.2019671e-005
8	5654	0.047	0.011276580596
8	5655	0.047	2.23232e-007
8	5656	0.047	0.011185216352
8	5657	0.047	0.011093852108
8	5658	0.047	0.011002487864
8	5748	0.048	0.000964908525
8	5749	0.048	0.00087176973
8	5750	0.048	0.000778630935
8	5751	0.048	0.000908426793
8	5752	0.048	0.000816630354
8	5753	0.048	0.01191112362
8	5754	0.048	0.00068549214
8	5755	0.048	0.000592353345
8	5756	0.048	0.00049921455
8	5757	0.048	0.000724833915
8	5758	0.048	0.000633037476
8	5759	0.048	0.011819759376
8	5760	0.048	0.000406075755
8	5761	0.048	0.00031293696
8	5762	0.048	0.000219798165
8	5763	0.048	0.000541241037
8	5764	0.048	0.000449444598
8	5765	0.048	0.011728395132
8	5766	0.048	0.00012665937
8	5767	0.048	3.3520575e-005
8	5768	0.048	0.000357648159
8	5769	0.048	0.00026585172
8	5770	0.048	0.011637030888
8	5771	0.048	0.000174055281
8	5772	0.048	8.2258842e-005
8	5773	0.048	0.011545666644
8	5774	0.048	0.0114543024
8	5775	0.048	0.011362938156
8	5776	0.048	0.011271573912
8	5777	0.048	0.011180209668
8	5869	0.049	0.00094038178
8	5870	0.049	0.000847242985
8	5871	0.049	0.00075410419
8	5872	0.049	0.000990462403
8	5873	0.049	0.000898665964
8	5874	0.049	0.012088845424
8	5875	0.049	0.000660965395
8	5876	0.049	0.0005678266
8	5877	0.049	0.000474687805
8	5878	0.049	0.000806869525
8	5879	0.049	0.000715073086
8	5880	0.049	0.01199748118
8	5881	0.049	0.00038154901
8	5882	0.049	0.000288410215
8	5883	0.049	0.00019527142
8	5884	0.049	0.000623276647
8	5885	0.049	0.000531480208
8	5886	0.049	0.011906116936
8	5887	0.049	0.000102132625
8	5888	0.049	8.99383e-006
8	5889	0.049	0.000439683769
8	5890	0.049	0.00034788733
8	5891	0.049	0.011814752692
8	5892	0.049	0.000256090891
8	5893	0.049	0.000164294452
8	5894	0.049	0.011723388448
8	5895	0.049	7.2498013e-005
8	5896	0.049	0.011632024204
8	5897	0.049	0.01154065996
8	5898	0.049	0.011449295716
8	5989	0.05	0.000915855035
8	5990	0.05	0.00082271624
8	5991	0.05	0.000729577445
8	5992	0.05	0.000980701574
8	5993	0.05	0.000888905135
8	5994	0.05	0.012357931472
8	5995	0.05	0.00063643865
8	5996	0.05	0.000543299855
8	5997	0.05	0.00045016106
8	5998	0.05	0.000797108696
8	5999	0.05	0.000705312257
8	6000	0.05	0.012266567228
8	6001	0.05	0.000357022265
8	6002	0.05	0.00026388347
8	6003	0.05	0.000170744675
8	6004	0.05	0.000613515818
8	6005	0.05	0.000521719379
8	6006	0.05	0.012175202984
8	6007	0.05	7.760588e-005
8	6008	0.05	0.00042992294
8	6009	0.05	0.000338126501
8	6010	0.05	0.01208383874
8	6011	0.05	0.000246330062
8	6012	0.05	0.000154533623
8	6013	0.05	0.011992474496
8	6014	0.05	6.2737184e-005
8	6015	0.05	0.011901110252
8	6016	0.05	0.011809746008
8	6017	0.05	0.011718381764
8	6018	0.05	0.01162701752
8	6110	0.051	0.000984467085
8	6111	0.051	0.00089132829
8	6112	0.051	0.000798189495
8	6113	0.051	0.000970940745
8	6114	0.051	0.000879144306
8	6115	0.051	0.012535653276
8	6116	0.051	0.0007050507
8	6117	0.051	0.000611911905
8	6118	0.051	0.00051877311
8	6119	0.051	0.000787347867
8	6120	0.051	0.000695551428
8	6121	0.051	0.012444289032
8	6122	0.051	0.000425634315
8	6123	0.051	0.00033249552
8	6124	0.051	0.000239356725
8	6125	0.051	0.000603754989
8	6126	0.051	0.00051195855
8	6127	0.051	0.012352924788
8	6128	0.051	0.00014621793
8	6129	0.051	5.3079135e-005
8	6130	0.051	0.000420162111
8	6131	0.051	0.000328365672
8	6132	0.051	0.012261560544
8	6133	0.051	0.000236569233
8	6134	0.051	0.000144772794
8	6135	0.051	0.0121701963
8	6136	0.051	5.2976355e-005
8	6137	0.051	0.012078832056
8	6138	0.051	0.011987467812
8	6139	0.051	0.011896103568
8	6231	0.052	0.00095994034
8	6232	0.052	0.000866801545
8	6233	0.052	0.00077366275
8	6234	0.052	0.000961179916
8	6235	0.052	0.000869383477
8	6236	0.052	0.012804739324
8	6237	0.052	0.000680523955
8	6238	0.052	0.00058738516
8	6239	0.052	0.000494246365
8	6240	0.052	0.000777587038
8	6241	0.052	0.000685790599
8	6242	0.052	0.01271337508
8	6243	0.052	0.00040110757
8	6244	0.052	0.000307968775
8	6245	0.052	0.00021482998
8	6246	0.052	0.00059399416
8	6247	0.052	0.000502197721
8	6248	0.052	0.012622010836
8	6249	0.052	0.000121691185
8	6250	0.052	2.855239e-005
8	6251	0.052	0.000410401282
8	6252	0.052	0.000318604843
8	6253	0.052	0.012530646592
8	6254	0.052	0.000226808404
8	6255	0.052	0.000135011965
8	6256	0.052	0.012439282348
8	6257	0.052	4.3215526e-005
8	6258	0.052	0.012347918104
8	6259	0.052	0.01225655386
8	6260	0.052	0.012165189616
8	6352	0.053	0.000935413595
8	6353	0.053	0.0008422748
8	6354	0.053	0.000749136005
8	6355	0.053	0.000951419087
8	6356	0.053	0.000859622648
8	6357	0.053	0.013073825372
8	6358	0.053	0.00065599721
8	6359	0.053	0.000562858415
8	6360	0.053	0.00046971962
8	6361	0.053	0.000767826209
8	6362	0.053	0.00067602977
8	6363	0.053	0.012982461128
8	6364	0.053	0.000376580825
8	6365	0.053	0.00028344203
8	6366	0.053	0.000190303235
8	6367	0.053	0.000584233331
8	6368	0.053	0.000492436892
8	6369	0.053	0.012891096884
8	6370	0.053	9.716444e-005
8	6371	0.053	4.025645e-006
8	6372	0.053	0.000400640453
8	6373	0.053	0.000308844014
8	6374	0.053	0.01279973264
8	6375	0.053	0.000217047575
8	6376	0.053	0.000125251136
8	6377	0.053	0.012708368396
8	6378	0.053	3.3454697e-005
8	6379	0.053	0.012617004152
8	6380	0.053	0.012525639908
8	6381	0.053	0.012434275664
8	6472	0.054	0.00091088685
8	6473	0.054	0.000817748055
8	6474	0.054	0.00072460926
8	6475	0.054	0.000941658258
8	6476	0.054	0.000849861819
8	6477	0.054	0.01334291142
8	6478	0.054	0.000631470465
8	6479	0.054	0.00053833167
8	6480	0.054	0.000445192875
8	6481	0.054	0.00075806538
8	6482	0.054	0.000666268941
8	6483	0.054	0.013251547176
8	6484	0.054	0.00035205408
8	6485	0.054	0.000258915285
8	6486	0.054	0.00016577649
8	6487	0.054	0.000574472502
8	6488	0.054	0.000482676063
8	6489	0.054	0.013160182932
8	6490	0.054	7.2637695e-005
8	6491	0.054	0.000390879624
8	6492	0.054	0.000299083185
8	6493	0.054	0.013068818688
8	6494	0.054	0.000207286746
8	6495	0.054	0.000115490307
8	6496	0.054	0.012977454444
8	6497	0.054	2.3693868e-005
8	6498	0.054	0.0128860902
8	6499	0.054	0.012794725956
8	6500	0.054	0.012703361712
8	6501	0.054	0.012611997468
8	6591	0.055	0.0009794989
8	6592	0.055	0.000886360105
8	6593	0.055	0.00079322131
8	6594	0.055	0.000931897429
8	6595	0.055	0.00084010099
8	6596	0.055	0.013520633224
8	6597	0.055	0.000700082515
8	6598	0.055	0.00060694372
8	6599	0.055	0.000513804925
8	6600	0.055	0.000748304551
8	6601	0.055	0.000656508112
8	6602	0.055	0.01342926898
8	6603	0.055	0.00042066613
8	6604	0.055	0.000327527335
8	6605	0.055	0.00023438854
8	6606	0.055	0.000564711673
8	6607	0.055	0.000472915234
8	6608	0.055	0.013337904736
8	6609	0.055	0.000141249745
8	6610	0.055	4.811095e-005
8	6611	0.055	0.000381118795
8	6612	0.055	0.000289322356
8	6613	0.055	0.013246540492
8	6614	0.055	0.000197525917
8	6615	0.055	0.000105729478
8	6616	0.055	0.013155176248
8	6617	0.055	1.3933039e-005
8	6618	0.055	0.013063812004
8	6619	0.055	0.01297244776
8	6620	0.055	0.012881083516
8	6712	0.056	0.000954972155
8	6713	0.056	0.00086183336
8	6714	0.056	0.000768694565
8	6715	0.056	0.0009221366
8	6716	0.056	0.000830340161
8	6717	0.056	0.013789719272
8	6718	0.056	0.00067555577
8	6719	0.056	0.000582416975
8	6720	0.056	0.00048927818
8	6721	0.056	0.000738543722
8	6722	0.056	0.000646747283
8	6723	0.056	0.013698355028
8	6724	0.056	0.000396139385
8	6725	0.056	0.00030300059
8	6726	0.056	0.000209861795
8	6727	0.056	0.000554950844
8	6728	0.056	0.000463154405
8	6729	0.056	0.013606990784
8	6730	0.056	0.000116723
8	6731	0.056	2.3584205e-005
8	6732	0.056	0.000371357966
8	6733	0.056	0.000279561527
8	6734	0.056	0.01351562654
8	6735	0.056	0.000187765088
8	6736	0.056	9.5968649e-005
8	6737	0.056	0.013424262296
8	6738	0.056	4.17221e-006
8	6739	0.056	0.013332898052
8	6740	0.056	0.013241533808
8	6741	0.056	0.013150169564
8	6830	0.057	0.00093044541
8	6831	0.057	0.000837306615
8	6832	0.057	0.00074416782
8	6833	0.057	0.000912375771
8	6834	0.057	0.000820579332
8	6835	0.057	0.01405880532
8	6836	0.057	0.000651029025
8	6837	0.057	0.00055789023
8	6838	0.057	0.000464751435
8	6839	0.057	0.000728782893
8	6840	0.057	0.000636986454
8	6841	0.057	0.013967441076
8	6842	0.057	0.00037161264
8	6843	0.057	0.000278473845
8	6844	0.057	0.00018533505
8	6845	0.057	0.000545190015
8	6846	0.057	0.000453393576
8	6847	0.057	0.013876076832
8	6848	0.057	9.2196255e-005
8	6849	0.057	0.000361597137
8	6850	0.057	0.000269800698
8	6851	0.057	0.013784712588
8	6852	0.057	0.000178004259
8	6853	0.057	8.620782e-005
8	6854	0.057	0.013693348344
8	6855	0.057	0.0136019841
8	6856	0.057	0.013510619856
8	6857	0.057	0.013419255612
8	6858	0.057	0.013327891368
8	6859	0.057	0.013236527124
8	6951	0.058	0.00099905746
8	6952	0.058	0.000905918665
8	6953	0.058	0.00081277987
8	6954	0.058	0.000994411381
8	6955	0.058	0.000902614942
8	6956	0.058	0.01414516288
8	6957	0.058	0.000719641075
8	6958	0.058	0.00062650228
8	6959	0.058	0.000533363485
8	6960	0.058	0.000810818503
8	6961	0.058	0.000719022064
8	6962	0.058	0.014053798636
8	6963	0.058	0.00044022469
8	6964	0.058	0.000347085895
8	6965	0.058	0.0002539471
8	6966	0.058	0.000627225625
8	6967	0.058	0.000535429186
8	6968	0.058	0.013962434392
8	6969	0.058	0.000160808305
8	6970	0.058	6.766951e-005
8	6971	0.058	0.000443632747
8	6972	0.058	0.000351836308
8	6973	0.058	0.013871070148
8	6974	0.058	0.000260039869
8	6975	0.058	0.00016824343
8	6976	0.058	0.013779705904
8	6977	0.058	7.6446991e-005
8	6978	0.058	0.01368834166
8	6979	0.058	0.013596977416
8	6980	0.058	0.013505613172
8	7072	0.059	0.000974530715
8	7073	0.059	0.00088139192
8	7074	0.059	0.000788253125
8	7075	0.059	0.000984650552
8	7076	0.059	0.000892854113
8	7077	0.059	0.014414248928
8	7078	0.059	0.00069511433
8	7079	0.059	0.000601975535
8	7080	0.059	0.00050883674
8	7081	0.059	0.000801057674
8	7082	0.059	0.000709261235
8	7083	0.059	0.014322884684
8	7084	0.059	0.000415697945
8	7085	0.059	0.00032255915
8	7086	0.059	0.000229420355
8	7087	0.059	0.000617464796
8	7088	0.059	0.000525668357
8	7089	0.059	0.01423152044
8	7090	0.059	0.00013628156
8	7091	0.059	4.3142765e-005
8	7092	0.059	0.000433871918
8	7093	0.059	0.000342075479
8	7094	0.059	0.014140156196
8	7095	0.059	0.00025027904
8	7096	0.059	0.000158482601
8	7097	0.059	0.014048791952
8	7098	0.059	6.6686162e-005
8	7099	0.059	0.013957427708
8	7100	0.059	0.013866063464
8	7101	0.059	0.01377469922
8	7193	0.06	0.00095000397
8	7194	0.06	0.000856865175
8	7195	0.06	0.00076372638
8	7196	0.06	0.000974889723
8	7197	0.06	0.000883093284
8	7198	0.06	0.014683334976
8	7199	0.06	0.000670587585
8	7200	0.06	0.00057744879
8	7201	0.06	0.000484309995
8	7202	0.06	0.000791296845
8	7203	0.06	0.000699500406
8	7204	0.06	0.014591970732
8	7205	0.06	0.0003911712
8	7206	0.06	0.000298032405
8	7207	0.06	0.00020489361
8	7208	0.06	0.000607703967
8	7209	0.06	0.000515907528
8	7210	0.06	0.014500606488
8	7211	0.06	0.000111754815
8	7212	0.06	1.861602e-005
8	7213	0.06	0.000424111089
8	7214	0.06	0.00033231465
8	7215	0.06	0.014409242244
8	7216	0.06	0.000240518211
8	7217	0.06	0.000148721772
8	7218	0.06	0.014317878
8	7219	0.06	5.6925333e-005
8	7220	0.06	0.014226513756
8	7221	0.06	0.014135149512
8	7222	0.06	0.014043785268
8	7313	0.061	0.000925477225
8	7314	0.061	0.00083233843
8	7315	0.061	0.000739199635
8	7316	0.061	0.000965128894
8	7317	0.061	0.000873332455
8	7318	0.061	0.014952421024
8	7319	0.061	0.00064606084
8	7320	0.061	0.000552922045
8	7321	0.061	0.00045978325
8	7322	0.061	0.000781536016
8	7323	0.061	0.000689739577
8	7324	0.061	0.01486105678
8	7325	0.061	0.000366644455
8	7326	0.061	0.00027350566
8	7327	0.061	0.000180366865
8	7328	0.061	0.000597943138
8	7329	0.061	0.000506146699
8	7330	0.061	0.014769692536
8	7331	0.061	8.722807e-005
8	7332	0.061	0.00041435026
8	7333	0.061	0.000322553821
8	7334	0.061	0.014678328292
8	7335	0.061	0.000230757382
8	7336	0.061	0.000138960943
8	7337	0.061	0.014586964048
8	7338	0.061	4.7164504e-005
8	7339	0.061	0.014495599804
8	7340	0.061	0.01440423556
8	7341	0.061	0.014312871316
8	7342	0.061	0.014221507072
8	7434	0.062	0.000994089275
8	7435	0.062	0.00090095048
8	7436	0.062	0.000807811685
8	7437	0.062	0.000955368065
8	7438	0.062	0.000863571626
8	7439	0.062	0.015130142828
8	7440	0.062	0.00071467289
8	7441	0.062	0.000621534095
8	7442	0.062	0.0005283953
8	7443	0.062	0.000771775187
8	7444	0.062	0.000679978748
8	7445	0.062	0.015038778584
8	7446	0.062	0.000435256505
8	7447	0.062	0.00034211771
8	7448	0.062	0.000248978915
8	7449	0.062	0.000588182309
8	7450	0.062	0.00049638587
8	7451	0.062	0.01494741434
8	7452	0.062	0.00015584012
8	7453	0.062	6.2701325e-005
8	7454	0.062	0.000404589431
8	7455	0.062	0.000312792992
8	7456	0.062	0.014856050096
8	7457	0.062	0.000220996553
8	7458	0.062	0.000129200114
8	7459	0.062	0.014764685852
8	7460	0.062	3.7403675e-005
8	7461	0.062	0.014673321608
8	7462	0.062	0.014581957364
8	7463	0.062	0.01449059312
8	7555	0.063	0.00096956253
8	7556	0.063	0.000876423735
8	7557	0.063	0.00078328494
8	7558	0.063	0.000945607236
8	7559	0.063	0.000853810797
8	7560	0.063	0.015399228876
8	7561	0.063	0.000690146145
8	7562	0.063	0.00059700735
8	7563	0.063	0.000503868555
8	7564	0.063	0.000762014358
8	7565	0.063	0.000670217919
8	7566	0.063	0.015307864632
8	7567	0.063	0.00041072976
8	7568	0.063	0.000317590965
8	7569	0.063	0.00022445217
8	7570	0.063	0.00057842148
8	7571	0.063	0.000486625041
8	7572	0.063	0.015216500388
8	7573	0.063	0.000131313375
8	7574	0.063	3.817458e-005
8	7575	0.063	0.000394828602
8	7576	0.063	0.000303032163
8	7577	0.063	0.015125136144
8	7578	0.063	0.000211235724
8	7579	0.063	0.000119439285
8	7580	0.063	0.0150337719
8	7581	0.063	2.7642846e-005
8	7582	0.063	0.014942407656
8	7583	0.063	0.014851043412
8	7584	0.063	0.014759679168
8	7676	0.064	0.000945035785
8	7677	0.064	0.00085189699
8	7678	0.064	0.000758758195
8	7679	0.064	0.000935846407
8	7680	0.064	0.000844049968
8	7681	0.064	0.015668314924
8	7682	0.064	0.0006656194
8	7683	0.064	0.000572480605
8	7684	0.064	0.00047934181
8	7685	0.064	0.000752253529
8	7686	0.064	0.00066045709
8	7687	0.064	0.01557695068
8	7688	0.064	0.000386203015
8	7689	0.064	0.00029306422
8	7690	0.064	0.000199925425
8	7691	0.064	0.000568660651
8	7692	0.064	0.000476864212
8	7693	0.064	0.015485586436
8	7694	0.064	0.00010678663
8	7695	0.064	1.3647835e-005
8	7696	0.064	0.000385067773
8	7697	0.064	0.000293271334
8	7698	0.064	0.015394222192
8	7699	0.064	0.000201474895
8	7700	0.064	0.000109678456
8	7701	0.064	0.015302857948
8	7702	0.064	1.7882017e-005
8	7703	0.064	0.015211493704
8	7704	0.064	0.01512012946
8	7705	0.064	0.015028765216
8	7796	0.065	0.00092050904
8	7797	0.065	0.000827370245
8	7798	0.065	0.00073423145
8	7799	0.065	0.000926085578
8	7800	0.065	0.000834289139
8	7801	0.065	0.015937400972
8	7802	0.065	0.000641092655
8	7803	0.065	0.00054795386
8	7804	0.065	0.000454815065
8	7805	0.065	0.0007424927
8	7806	0.065	0.000650696261
8	7807	0.065	0.015846036728
8	7808	0.065	0.00036167627
8	7809	0.065	0.000268537475
8	7810	0.065	0.00017539868
8	7811	0.065	0.000558899822
8	7812	0.065	0.000467103383
8	7813	0.065	0.015754672484
8	7814	0.065	8.2259885e-005
8	7815	0.065	0.000375306944
8	7816	0.065	0.000283510505
8	7817	0.065	0.01566330824
8	7818	0.065	0.000191714066
8	7819	0.065	9.9917627e-005
8	7820	0.065	0.015571943996
8	7821	0.065	8.121188e-006
8	7822	0.065	0.015480579752
8	7823	0.065	0.015389215508
8	7824	0.065	0.015297851264
8	7825	0.065	0.01520648702
8	7915	0.066	0.00098912109
8	7916	0.066	0.000895982295
8	7917	0.066	0.0008028435
8	7918	0.066	0.000916324749
8	7919	0.066	0.00082452831
8	7920	0.066	0.016115122776
8	7921	0.066	0.000709704705
8	7922	0.066	0.00061656591
8	7923	0.066	0.000523427115
8	7924	0.066	0.000732731871
8	7925	0.066	0.000640935432
8	7926	0.066	0.016023758532
8	7927	0.066	0.00043028832
8	7928	0.066	0.000337149525
8	7929	0.066	0.00024401073
8	7930	0.066	0.000549138993
8	7931	0.066	0.000457342554
8	7932	0.066	0.015932394288
8	7933	0.066	0.000150871935
8	7934	0.066	5.773314e-005
8	7935	0.066	0.000365546115
8	7936	0.066	0.000273749676
8	7937	0.066	0.015841030044
8	7938	0.066	0.000181953237
8	7939	0.066	9.0156798e-005
8	7940	0.066	0.0157496658
8	7941	0.066	0.015658301556
8	7942	0.066	0.015566937312
8	7943	0.066	0.015475573068
8	7944	0.066	0.015384208824
8	8036	0.067	0.000964594345
8	8037	0.067	0.00087145555
8	8038	0.067	0.000778316755
8	8039	0.067	0.000998360359
8	8040	0.067	0.00090656392
8	8041	0.067	0.01629284458
8	8042	0.067	0.00068517796
8	8043	0.067	0.000592039165
8	8044	0.067	0.00049890037
8	8045	0.067	0.000814767481
8	8046	0.067	0.000722971042
8	8047	0.067	0.016201480336
8	8048	0.067	0.000405761575
8	8049	0.067	0.00031262278
8	8050	0.067	0.000219483985
8	8051	0.067	0.000631174603
8	8052	0.067	0.000539378164
8	8053	0.067	0.016110116092
8	8054	0.067	0.00012634519
8	8055	0.067	3.3206395e-005
8	8056	0.067	0.000447581725
8	8057	0.067	0.000355785286
8	8058	0.067	0.016018751848
8	8059	0.067	0.000263988847
8	8060	0.067	0.000172192408
8	8061	0.067	0.015927387604
8	8062	0.067	8.0395969e-005
8	8063	0.067	0.01583602336
8	8064	0.067	0.015744659116
8	8065	0.067	0.015653294872
8	8157	0.068	0.0009400676
8	8158	0.068	0.000846928805
8	8159	0.068	0.00075379001
8	8160	0.068	0.00098859953
8	8161	0.068	0.000896803091
8	8162	0.068	0.016561930628
8	8163	0.068	0.000660651215
8	8164	0.068	0.00056751242
8	8165	0.068	0.000474373625
8	8166	0.068	0.000805006652
8	8167	0.068	0.000713210213
8	8168	0.068	0.016470566384
8	8169	0.068	0.00038123483
8	8170	0.068	0.000288096035
8	8171	0.068	0.00019495724
8	8172	0.068	0.000621413774
8	8173	0.068	0.000529617335
8	8174	0.068	0.01637920214
8	8175	0.068	0.000101818445
8	8176	0.068	8.67965e-006
8	8177	0.068	0.000437820896
8	8178	0.068	0.000346024457
8	8179	0.068	0.016287837896
8	8180	0.068	0.000254228018
8	8181	0.068	0.000162431579
8	8182	0.068	0.016196473652
8	8183	0.068	7.063514e-005
8	8184	0.068	0.016105109408
8	8185	0.068	0.016013745164
8	8186	0.068	0.01592238092
8	8277	0.069	0.000915540855
8	8278	0.069	0.00082240206
8	8279	0.069	0.000729263265
8	8280	0.069	0.000978838701
8	8281	0.069	0.000887042262
8	8282	0.069	0.016831016676
8	8283	0.069	0.00063612447
8	8284	0.069	0.000542985675
8	8285	0.069	0.00044984688
8	8286	0.069	0.000795245823
8	8287	0.069	0.000703449384
8	8288	0.069	0.016739652432
8	8289	0.069	0.000356708085
8	8290	0.069	0.00026356929
8	8291	0.069	0.000170430495
8	8292	0.069	0.000611652945
8	8293	0.069	0.000519856506
8	8294	0.069	0.016648288188
8	8295	0.069	7.72917e-005
8	8296	0.069	0.000428060067
8	8297	0.069	0.000336263628
8	8298	0.069	0.016556923944
8	8299	0.069	0.000244467189
8	8300	0.069	0.00015267075
8	8301	0.069	0.0164655597
8	8302	0.069	6.0874311e-005
8	8303	0.069	0.016374195456
8	8304	0.069	0.016282831212
8	8305	0.069	0.016191466968
8	8306	0.069	0.016100102724
8	8398	0.07	0.000984152905
8	8399	0.07	0.00089101411
8	8400	0.07	0.000797875315
8	8401	0.07	0.000969077872
8	8402	0.07	0.000877281433
8	8403	0.07	0.01700873848
8	8404	0.07	0.00070473652
8	8405	0.07	0.000611597725
8	8406	0.07	0.00051845893
8	8407	0.07	0.000785484994
8	8408	0.07	0.000693688555
8	8409	0.07	0.016917374236
8	8410	0.07	0.000425320135
8	8411	0.07	0.00033218134
8	8412	0.07	0.000239042545
8	8413	0.07	0.000601892116
8	8414	0.07	0.000510095677
8	8415	0.07	0.016826009992
8	8416	0.07	0.00014590375
8	8417	0.07	5.2764955e-005
8	8418	0.07	0.000418299238
8	8419	0.07	0.000326502799
8	8420	0.07	0.016734645748
8	8421	0.07	0.00023470636
8	8422	0.07	0.000142909921
8	8423	0.07	0.016643281504
8	8424	0.07	5.1113482e-005
8	8425	0.07	0.01655191726
8	8426	0.07	0.016460553016
8	8427	0.07	0.016369188772
8	8519	0.071	0.00095962616
8	8520	0.071	0.000866487365
8	8521	0.071	0.00077334857
8	8522	0.071	0.000959317043
8	8523	0.071	0.000867520604
8	8524	0.071	0.017277824528
8	8525	0.071	0.000680209775
8	8526	0.071	0.00058707098
8	8527	0.071	0.000493932185
8	8528	0.071	0.000775724165
8	8529	0.071	0.000683927726
8	8530	0.071	0.017186460284
8	8531	0.071	0.00040079339
8	8532	0.071	0.000307654595
8	8533	0.071	0.0002145158
8	8534	0.071	0.000592131287
8	8535	0.071	0.000500334848
8	8536	0.071	0.01709509604
8	8537	0.071	0.000121377005
8	8538	0.071	2.823821e-005
8	8539	0.071	0.000408538409
8	8540	0.071	0.00031674197
8	8541	0.071	0.017003731796
8	8542	0.071	0.000224945531
8	8543	0.071	0.000133149092
8	8544	0.071	0.016912367552
8	8545	0.071	4.1352653e-005
8	8546	0.071	0.016821003308
8	8547	0.071	0.016729639064
8	8548	0.071	0.01663827482
8	8640	0.072	0.000935099415
8	8641	0.072	0.00084196062
8	8642	0.072	0.000748821825
8	8643	0.072	0.000949556214
8	8644	0.072	0.000857759775
8	8645	0.072	0.017546910576
8	8646	0.072	0.00065568303
8	8647	0.072	0.000562544235
8	8648	0.072	0.00046940544
8	8649	0.072	0.000765963336
8	8650	0.072	0.000674166897
8	8651	0.072	0.017455546332
8	8652	0.072	0.000376266645
8	8653	0.072	0.00028312785
8	8654	0.072	0.000189989055
8	8655	0.072	0.000582370458
8	8656	0.072	0.000490574019
8	8657	0.072	0.017364182088
8	8658	0.072	9.685026e-005
8	8659	0.072	3.711465e-006
8	8660	0.072	0.00039877758
8	8661	0.072	0.000306981141
8	8662	0.072	0.017272817844
8	8663	0.072	0.000215184702
8	8664	0.072	0.000123388263
8	8665	0.072	0.0171814536
8	8666	0.072	3.1591824e-005
8	8667	0.072	0.017090089356
8	8668	0.072	0.016998725112
8	8669	0.072	0.016907360868
8	8758	0.073	0.00091057267
8	8759	0.073	0.000817433875
8	8760	0.073	0.00072429508
8	8761	0.073	0.000939795385
8	8762	0.073	0.000847998946
8	8763	0.073	0.017815996624
8	8764	0.073	0.000631156285
8	8765	0.073	0.00053801749
8	8766	0.073	0.000444878695
8	8767	0.073	0.000756202507
8	8768	0.073	0.000664406068
8	8769	0.073	0.01772463238
8	8770	0.073	0.0003517399
8	8771	0.073	0.000258601105
8	8772	0.073	0.00016546231
8	8773	0.073	0.000572609629
8	8774	0.073	0.00048081319
8	8775	0.073	0.017633268136
8	8776	0.073	7.2323515e-005
8	8777	0.073	0.000389016751
8	8778	0.073	0.000297220312
8	8779	0.073	0.017541903892
8	8780	0.073	0.000205423873
8	8781	0.073	0.000113627434
8	8782	0.073	0.017450539648
8	8783	0.073	2.1830995e-005
8	8784	0.073	0.017359175404
8	8785	0.073	0.01726781116
8	8786	0.073	0.017176446916
8	8787	0.073	0.017085082672
8	8879	0.074	0.00097918472
8	8880	0.074	0.000886045925
8	8881	0.074	0.00079290713
8	8882	0.074	0.000930034556
8	8883	0.074	0.000838238117
8	8884	0.074	0.017993718428
8	8885	0.074	0.000699768335
8	8886	0.074	0.00060662954
8	8887	0.074	0.000513490745
8	8888	0.074	0.000746441678
8	8889	0.074	0.000654645239
8	8890	0.074	0.017902354184
8	8891	0.074	0.00042035195
8	8892	0.074	0.000327213155
8	8893	0.074	0.00023407436
8	8894	0.074	0.0005628488
8	8895	0.074	0.000471052361
8	8896	0.074	0.01781098994
8	8897	0.074	0.000140935565
8	8898	0.074	4.779677e-005
8	8899	0.074	0.000379255922
8	8900	0.074	0.000287459483
8	8901	0.074	0.017719625696
8	8902	0.074	0.000195663044
8	8903	0.074	0.000103866605
8	8904	0.074	0.017628261452
8	8905	0.074	1.2070166e-005
8	8906	0.074	0.017536897208
8	8907	0.074	0.017445532964
8	8908	0.074	0.01735416872
8	9000	0.075	0.000954657975
8	9001	0.075	0.00086151918
8	9002	0.075	0.000768380385
8	9003	0.075	0.000920273727
8	9004	0.075	0.000828477288
8	9005	0.075	0.018262804476
8	9006	0.075	0.00067524159
8	9007	0.075	0.000582102795
8	9008	0.075	0.000488964
8	9009	0.075	0.000736680849
8	9010	0.075	0.00064488441
8	9011	0.075	0.018171440232
8	9012	0.075	0.000395825205
8	9013	0.075	0.00030268641
8	9014	0.075	0.000209547615
8	9015	0.075	0.000553087971
8	9016	0.075	0.000461291532
8	9017	0.075	0.018080075988
8	9018	0.075	0.00011640882
8	9019	0.075	2.3270025e-005
8	9020	0.075	0.000369495093
8	9021	0.075	0.000277698654
8	9022	0.075	0.017988711744
8	9023	0.075	0.000185902215
8	9024	0.075	9.4105776e-005
8	9025	0.075	0.0178973475
8	9026	0.075	2.309337e-006
8	9027	0.075	0.017805983256
8	9028	0.075	0.017714619012
8	9029	0.075	0.017623254768
8	9118	0.076	0.00093013123
8	9119	0.076	0.000836992435
8	9120	0.076	0.00074385364
8	9121	0.076	0.000910512898
8	9122	0.076	0.000818716459
8	9123	0.076	0.018531890524
8	9124	0.076	0.000650714845
8	9125	0.076	0.00055757605
8	9126	0.076	0.000464437255
8	9127	0.076	0.00072692002
8	9128	0.076	0.000635123581
8	9129	0.076	0.01844052628
8	9130	0.076	0.00037129846
8	9131	0.076	0.000278159665
8	9132	0.076	0.00018502087
8	9133	0.076	0.000543327142
8	9134	0.076	0.000451530703
8	9135	0.076	0.018349162036
8	9136	0.076	9.1882075e-005
8	9137	0.076	0.000359734264
8	9138	0.076	0.000267937825
8	9139	0.076	0.018257797792
8	9140	0.076	0.000176141386
8	9141	0.076	8.4344947e-005
8	9142	0.076	0.018166433548
8	9143	0.076	0.018075069304
8	9144	0.076	0.01798370506
8	9145	0.076	0.017892340816
8	9146	0.076	0.017800976572
8	9147	0.076	0.017709612328
8	9239	0.077	0.00099874328
8	9240	0.077	0.000905604485
8	9241	0.077	0.00081246569
8	9242	0.077	0.000992548508
8	9243	0.077	0.000900752069
8	9244	0.077	0.018618248084
8	9245	0.077	0.000719326895
8	9246	0.077	0.0006261881
8	9247	0.077	0.000533049305
8	9248	0.077	0.00080895563
8	9249	0.077	0.000717159191
8	9250	0.077	0.01852688384
8	9251	0.077	0.00043991051
8	9252	0.077	0.000346771715
8	9253	0.077	0.00025363292
8	9254	0.077	0.000625362752
8	9255	0.077	0.000533566313
8	9256	0.077	0.018435519596
8	9257	0.077	0.000160494125
8	9258	0.077	6.735533e-005
8	9259	0.077	0.000441769874
8	9260	0.077	0.000349973435
8	9261	0.077	0.018344155352
8	9262	0.077	0.000258176996
8	9263	0.077	0.000166380557
8	9264	0.077	0.018252791108
8	9265	0.077	7.4584118e-005
8	9266	0.077	0.018161426864
8	9267	0.077	0.01807006262
8	9268	0.077	0.017978698376
8	9360	0.078	0.000974216535
8	9361	0.078	0.00088107774
8	9362	0.078	0.000787938945
8	9363	0.078	0.000982787679
8	9364	0.078	0.00089099124
8	9365	0.078	0.018887334132
8	9366	0.078	0.00069480015
8	9367	0.078	0.000601661355
8	9368	0.078	0.00050852256
8	9369	0.078	0.000799194801
8	9370	0.078	0.000707398362
8	9371	0.078	0.018795969888
8	9372	0.078	0.000415383765
8	9373	0.078	0.00032224497
8	9374	0.078	0.000229106175
8	9375	0.078	0.000615601923
8	9376	0.078	0.000523805484
8	9377	0.078	0.018704605644
8	9378	0.078	0.00013596738
8	9379	0.078	4.2828585e-005
8	9380	0.078	0.000432009045
8	9381	0.078	0.000340212606
8	9382	0.078	0.0186132414
8	9383	0.078	0.000248416167
8	9384	0.078	0.000156619728
8	9385	0.078	0.018521877156
8	9386	0.078	6.4823289e-005
8	9387	0.078	0.018430512912
8	9388	0.078	0.018339148668
8	9389	0.078	0.018247784424
8	9481	0.079	0.00094968979
8	9482	0.079	0.000856550995
8	9483	0.079	0.0007634122
8	9484	0.079	0.00097302685
8	9485	0.079	0.000881230411
8	9486	0.079	0.01915642018
8	9487	0.079	0.000670273405
8	9488	0.079	0.00057713461
8	9489	0.079	0.000483995815
8	9490	0.079	0.000789433972
8	9491	0.079	0.000697637533
8	9492	0.079	0.019065055936
8	9493	0.079	0.00039085702
8	9494	0.079	0.000297718225
8	9495	0.079	0.00020457943
8	9496	0.079	0.000605841094
8	9497	0.079	0.000514044655
8	9498	0.079	0.018973691692
8	9499	0.079	0.000111440635
8	9500	0.079	1.830184e-005
8	9501	0.079	0.000422248216
8	9502	0.079	0.000330451777
8	9503	0.079	0.018882327448
8	9504	0.079	0.000238655338
8	9505	0.079	0.000146858899
8	9506	0.079	0.018790963204
8	9507	0.079	5.506246e-005
8	9508	0.079	0.01869959896
8	9509	0.079	0.018608234716
8	9510	0.079	0.018516870472
8	9601	0.08	0.000925163045
8	9602	0.08	0.00083202425
8	9603	0.08	0.000738885455
8	9604	0.08	0.000963266021
8	9605	0.08	0.000871469582
8	9606	0.08	0.019425506228
8	9607	0.08	0.00064574666
8	9608	0.08	0.000552607865
8	9609	0.08	0.00045946907
8	9610	0.08	0.000779673143
8	9611	0.08	0.000687876704
8	9612	0.08	0.019334141984
8	9613	0.08	0.000366330275
8	9614	0.08	0.00027319148
8	9615	0.08	0.000180052685
8	9616	0.08	0.000596080265
8	9617	0.08	0.000504283826
8	9618	0.08	0.01924277774
8	9619	0.08	8.691389e-005
8	9620	0.08	0.000412487387
8	9621	0.08	0.000320690948
8	9622	0.08	0.019151413496
8	9623	0.08	0.000228894509
8	9624	0.08	0.00013709807
8	9625	0.08	0.019060049252
8	9626	0.08	4.5301631e-005
8	9627	0.08	0.018968685008
8	9628	0.08	0.018877320764
8	9629	0.08	0.01878595652
8	9630	0.08	0.018694592276
8	9722	0.081	0.000993775095
8	9723	0.081	0.0009006363
8	9724	0.081	0.000807497505
8	9725	0.081	0.000953505192
8	9726	0.081	0.000861708753
8	9727	0.081	0.019603228032
8	9728	0.081	0.00071435871
8	9729	0.081	0.000621219915
8	9730	0.081	0.00052808112
8	9731	0.081	0.000769912314
8	9732	0.081	0.000678115875
8	9733	0.081	0.019511863788
8	9734	0.081	0.000434942325
8	9735	0.081	0.00034180353
8	9736	0.081	0.000248664735
8	9737	0.081	0.000586319436
8	9738	0.081	0.000494522997
8	9739	0.081	0.019420499544
8	9740	0.081	0.00015552594
8	9741	0.081	6.2387145e-005
8	9742	0.081	0.000402726558
8	9743	0.081	0.000310930119
8	9744	0.081	0.0193291353
8	9745	0.081	0.00021913368
8	9746	0.081	0.000127337241
8	9747	0.081	0.019237771056
8	9748	0.081	3.5540802e-005
8	9749	0.081	0.019146406812
8	9750	0.081	0.019055042568
8	9751	0.081	0.018963678324
8	9843	0.082	0.00096924835
8	9844	0.082	0.000876109555
8	9845	0.082	0.00078297076
8	9846	0.082	0.000943744363
8	9847	0.082	0.000851947924
8	9848	0.082	0.01987231408
8	9849	0.082	0.000689831965
8	9850	0.082	0.00059669317
8	9851	0.082	0.000503554375
8	9852	0.082	0.000760151485
8	9853	0.082	0.000668355046
8	9854	0.082	0.019780949836
8	9855	0.082	0.00041041558
8	9856	0.082	0.000317276785
8	9857	0.082	0.00022413799
8	9858	0.082	0.000576558607
8	9859	0.082	0.000484762168
8	9860	0.082	0.019689585592
8	9861	0.082	0.000130999195
8	9862	0.082	3.78604e-005
8	9863	0.082	0.000392965729
8	9864	0.082	0.00030116929
8	9865	0.082	0.019598221348
8	9866	0.082	0.000209372851
8	9867	0.082	0.000117576412
8	9868	0.082	0.019506857104
8	9869	0.082	2.5779973e-005
8	9870	0.082	0.01941549286
8	9871	0.082	0.019324128616
8	9872	0.082	0.019232764372
8	9964	0.083	0.000944721605
8	9965	0.083	0.00085158281
8	9966	0.083	0.000758444015
8	9967	0.083	0.000933983534
8	9968	0.083	0.000842187095
8	9969	0.083	0.020141400128
8	9970	0.083	0.00066530522
8	9971	0.083	0.000572166425
8	9972	0.083	0.00047902763
8	9973	0.083	0.000750390656
8	9974	0.083	0.000658594217
8	9975	0.083	0.020050035884
8	9976	0.083	0.000385888835
8	9977	0.083	0.00029275004
8	9978	0.083	0.000199611245
8	9979	0.083	0.000566797778
8	9980	0.083	0.000475001339
8	9981	0.083	0.01995867164
8	9982	0.083	0.00010647245
8	9983	0.083	1.3333655e-005
8	9984	0.083	0.0003832049
8	9985	0.083	0.000291408461
8	9986	0.083	0.019867307396
8	9987	0.083	0.000199612022
8	9988	0.083	0.000107815583
8	9989	0.083	0.019775943152
8	9990	0.083	1.6019144e-005
8	9991	0.083	0.019684578908
8	9992	0.083	0.019593214664
8	9993	0.083	0.01950185042

