version 2
run General-0-20201024-21:11:03-9616
attr configname General
attr datetime 20201024-21:11:03
attr experiment General
attr inifile omnetpp.ini
attr iterationvars ""
attr iterationvarsf ""
attr measurement ""
attr network User
attr processid 9616
attr repetition 0
attr replication #0
attr resultdir results
attr runnumber 0
attr seedset 0
param **.gen1.generateInterval 1s
param **.gen2.generateInterval 10s

vector 0 User.sink lifetime:vector ETV
attr interpolationmode none
attr title "lifetime of arrived jobs, vector"
attr unit s
0	23	10	9
0	24	10	8
0	47	20	17
0	48	20	16
0	71	30	25
0	72	30	24
0	95	40	33
0	96	40	32
0	119	50	41
0	120	50	40
0	143	60	49
0	144	60	48
0	167	70	57
0	168	70	56
0	191	80	65
0	192	80	64
0	215	90	73
0	216	90	72
0	239	100	81
0	240	100	80
0	263	110	89
0	264	110	88
0	287	120	97
0	288	120	96
0	311	130	105
0	312	130	104
0	335	140	113
0	336	140	112
0	359	150	121
0	360	150	120
0	383	160	129
0	384	160	128
0	407	170	137
0	408	170	136
0	431	180	145
0	432	180	144
0	455	190	153
0	456	190	152
0	479	200	161
0	480	200	160
0	503	210	169
0	504	210	168
0	527	220	177
0	528	220	176
0	551	230	185
0	552	230	184
0	575	240	193
0	576	240	192
0	599	250	201
0	600	250	200
0	623	260	209
0	624	260	208
0	647	270	217
0	648	270	216
0	671	280	225
0	672	280	224
0	695	290	233
0	696	290	232
0	719	300	241
0	720	300	240
0	743	310	249
0	744	310	248
0	767	320	257
0	768	320	256
0	791	330	265
0	792	330	264
0	815	340	273
0	816	340	272
0	839	350	281
0	840	350	280
0	863	360	289
0	864	360	288
0	887	370	297
0	888	370	296
0	911	380	305
0	912	380	304
0	935	390	313
0	936	390	312
0	959	400	321
0	960	400	320
0	983	410	329
0	984	410	328
0	1007	420	337
0	1008	420	336
0	1031	430	345
0	1032	430	344
0	1055	440	353
0	1056	440	352
0	1079	450	361
0	1080	450	360
0	1103	460	369
0	1104	460	368
0	1127	470	377
0	1128	470	376
0	1151	480	385
0	1152	480	384
0	1175	490	393
0	1176	490	392
0	1199	500	401
0	1200	500	400
0	1223	510	409
0	1224	510	408
0	1247	520	417
0	1248	520	416
0	1271	530	425
0	1272	530	424
0	1295	540	433
0	1296	540	432
0	1319	550	441
0	1320	550	440
0	1343	560	449
0	1344	560	448
0	1367	570	457
0	1368	570	456
0	1391	580	465
0	1392	580	464
0	1415	590	473
0	1416	590	472
0	1439	600	481
0	1440	600	480
0	1463	610	489
0	1464	610	488
0	1487	620	497
0	1488	620	496
0	1511	630	505
0	1512	630	504
0	1535	640	513
0	1536	640	512
0	1559	650	521
0	1560	650	520
0	1583	660	529
0	1584	660	528
0	1607	670	537
0	1608	670	536
0	1631	680	545
0	1632	680	544
0	1655	690	553
0	1656	690	552
0	1679	700	561
0	1680	700	560
0	1703	710	569
0	1704	710	568
0	1727	720	577
0	1728	720	576
0	1751	730	585
0	1752	730	584
0	1775	740	593
0	1776	740	592
0	1799	750	601
0	1800	750	600
0	1823	760	609
0	1824	760	608
0	1847	770	617
0	1848	770	616
0	1871	780	625
0	1872	780	624
0	1895	790	633
0	1896	790	632
0	1919	800	641
0	1920	800	640
0	1943	810	649
0	1944	810	648
0	1967	820	657
0	1968	820	656
0	1991	830	665
0	1992	830	664
0	2015	840	673
0	2016	840	672
0	2039	850	681
0	2040	850	680
0	2063	860	689
0	2064	860	688
0	2087	870	697
0	2088	870	696
0	2111	880	705
0	2112	880	704
0	2135	890	713
0	2136	890	712
0	2159	900	721
0	2160	900	720
0	2183	910	729
0	2184	910	728
0	2207	920	737
0	2208	920	736
0	2231	930	745
0	2232	930	744
0	2255	940	753
0	2256	940	752
0	2279	950	761
0	2280	950	760
0	2303	960	769
0	2304	960	768
0	2327	970	777
0	2328	970	776
0	2351	980	785
0	2352	980	784
0	2375	990	793
0	2376	990	792
0	2399	1000	801
0	2400	1000	800
0	2423	1010	809
0	2424	1010	808
0	2447	1020	817
0	2448	1020	816
0	2471	1030	825
0	2472	1030	824
0	2495	1040	833
0	2496	1040	832
0	2519	1050	841
0	2520	1050	840
0	2543	1060	849
0	2544	1060	848
0	2567	1070	857
0	2568	1070	856
0	2591	1080	865
0	2592	1080	864
0	2615	1090	873
0	2616	1090	872
0	2639	1100	881
0	2640	1100	880
0	2663	1110	889
0	2664	1110	888
0	2687	1120	897
0	2688	1120	896
0	2711	1130	905
0	2712	1130	904
0	2735	1140	913
0	2736	1140	912
0	2759	1150	921
0	2760	1150	920
0	2783	1160	929
0	2784	1160	928
0	2807	1170	937
0	2808	1170	936
0	2831	1180	945
0	2832	1180	944
0	2855	1190	953
0	2856	1190	952
0	2879	1200	961
0	2880	1200	960
0	2903	1210	969
0	2904	1210	968
0	2927	1220	977
0	2928	1220	976
0	2951	1230	985
0	2952	1230	984
0	2975	1240	993
0	2976	1240	992
0	2999	1250	1001
0	3000	1250	1000
0	3023	1260	1009
0	3024	1260	1008
0	3047	1270	1017
0	3048	1270	1016
0	3071	1280	1025
0	3072	1280	1024
0	3095	1290	1033
0	3096	1290	1032
0	3119	1300	1041
0	3120	1300	1040
0	3143	1310	1049
0	3144	1310	1048
0	3167	1320	1057
0	3168	1320	1056
0	3191	1330	1065
0	3192	1330	1064
0	3215	1340	1073
0	3216	1340	1072
0	3239	1350	1081
0	3240	1350	1080
0	3263	1360	1089
0	3264	1360	1088
0	3287	1370	1097
0	3288	1370	1096
0	3311	1380	1105
0	3312	1380	1104
0	3335	1390	1113
0	3336	1390	1112
0	3359	1400	1121
0	3360	1400	1120
0	3383	1410	1129
0	3384	1410	1128
0	3407	1420	1137
0	3408	1420	1136
0	3431	1430	1145
0	3432	1430	1144
0	3455	1440	1153
0	3456	1440	1152
0	3479	1450	1161
0	3480	1450	1160
0	3503	1460	1169
0	3504	1460	1168
0	3527	1470	1177
0	3528	1470	1176
0	3551	1480	1185
0	3552	1480	1184
0	3575	1490	1193
0	3576	1490	1192
0	3599	1500	1201
0	3600	1500	1200
0	3623	1510	1209
0	3624	1510	1208
0	3647	1520	1217
0	3648	1520	1216
0	3671	1530	1225
0	3672	1530	1224
0	3695	1540	1233
0	3696	1540	1232
0	3719	1550	1241
0	3720	1550	1240
0	3743	1560	1249
0	3744	1560	1248
0	3767	1570	1257
0	3768	1570	1256
0	3791	1580	1265
0	3792	1580	1264
0	3815	1590	1273
0	3816	1590	1272
0	3839	1600	1281
0	3840	1600	1280
0	3863	1610	1289
0	3864	1610	1288
0	3887	1620	1297
0	3888	1620	1296
0	3911	1630	1305
0	3912	1630	1304
0	3935	1640	1313
0	3936	1640	1312
0	3959	1650	1321
0	3960	1650	1320
0	3983	1660	1329
0	3984	1660	1328
0	4007	1670	1337
0	4008	1670	1336
0	4031	1680	1345
0	4032	1680	1344
0	4055	1690	1353
0	4056	1690	1352
0	4079	1700	1361
0	4080	1700	1360
0	4103	1710	1369
0	4104	1710	1368
0	4127	1720	1377
0	4128	1720	1376
0	4151	1730	1385
0	4152	1730	1384
0	4175	1740	1393
0	4176	1740	1392
0	4199	1750	1401
0	4200	1750	1400
0	4223	1760	1409
0	4224	1760	1408
0	4247	1770	1417
0	4248	1770	1416
0	4271	1780	1425
0	4272	1780	1424
0	4295	1790	1433
0	4296	1790	1432
0	4319	1800	1441
0	4320	1800	1440
0	4343	1810	1449
0	4344	1810	1448
0	4367	1820	1457
0	4368	1820	1456
0	4391	1830	1465
0	4392	1830	1464
0	4415	1840	1473
0	4416	1840	1472
0	4439	1850	1481
0	4440	1850	1480
0	4463	1860	1489
0	4464	1860	1488
0	4487	1870	1497
0	4488	1870	1496
0	4511	1880	1505
0	4512	1880	1504
0	4535	1890	1513
0	4536	1890	1512
0	4559	1900	1521
0	4560	1900	1520
0	4583	1910	1529
0	4584	1910	1528
0	4607	1920	1537
0	4608	1920	1536
0	4631	1930	1545
0	4632	1930	1544
0	4655	1940	1553
0	4656	1940	1552
0	4679	1950	1561
0	4680	1950	1560
0	4703	1960	1569
0	4704	1960	1568
0	4727	1970	1577
0	4728	1970	1576
0	4751	1980	1585
0	4752	1980	1584
0	4775	1990	1593
0	4776	1990	1592
0	4799	2000	1601
0	4800	2000	1600
0	4823	2010	1609
0	4824	2010	1608
0	4847	2020	1617
0	4848	2020	1616
0	4871	2030	1625
0	4872	2030	1624
0	4895	2040	1633
0	4896	2040	1632
0	4919	2050	1641
0	4920	2050	1640
0	4943	2060	1649
0	4944	2060	1648
0	4967	2070	1657
0	4968	2070	1656
0	4991	2080	1665
0	4992	2080	1664
0	5015	2090	1673
0	5016	2090	1672
0	5039	2100	1681
0	5040	2100	1680
0	5063	2110	1689
0	5064	2110	1688
0	5087	2120	1697
0	5088	2120	1696
0	5111	2130	1705
0	5112	2130	1704
0	5135	2140	1713
0	5136	2140	1712
0	5159	2150	1721
0	5160	2150	1720
0	5183	2160	1729
0	5184	2160	1728
0	5207	2170	1737
0	5208	2170	1736
0	5231	2180	1745
0	5232	2180	1744
0	5255	2190	1753
0	5256	2190	1752
0	5279	2200	1761
0	5280	2200	1760
0	5303	2210	1769
0	5304	2210	1768
0	5327	2220	1777
0	5328	2220	1776
0	5351	2230	1785
0	5352	2230	1784
0	5375	2240	1793
0	5376	2240	1792
0	5399	2250	1801
0	5400	2250	1800
0	5423	2260	1809
0	5424	2260	1808
0	5447	2270	1817
0	5448	2270	1816
0	5471	2280	1825
0	5472	2280	1824
0	5495	2290	1833
0	5496	2290	1832
0	5519	2300	1841
0	5520	2300	1840
0	5543	2310	1849
0	5544	2310	1848
0	5567	2320	1857
0	5568	2320	1856
0	5591	2330	1865
0	5592	2330	1864
0	5615	2340	1873
0	5616	2340	1872
0	5639	2350	1881
0	5640	2350	1880
0	5663	2360	1889
0	5664	2360	1888
0	5687	2370	1897
0	5688	2370	1896
0	5711	2380	1905
0	5712	2380	1904
0	5735	2390	1913
0	5736	2390	1912
0	5759	2400	1921
0	5760	2400	1920
0	5783	2410	1929
0	5784	2410	1928
0	5807	2420	1937
0	5808	2420	1936
0	5831	2430	1945
0	5832	2430	1944
0	5855	2440	1953
0	5856	2440	1952
0	5879	2450	1961
0	5880	2450	1960
0	5903	2460	1969
0	5904	2460	1968
0	5927	2470	1977
0	5928	2470	1976
0	5951	2480	1985
0	5952	2480	1984
0	5975	2490	1993
0	5976	2490	1992
0	5999	2500	2001
0	6000	2500	2000
0	6023	2510	2009
0	6024	2510	2008
0	6047	2520	2017
0	6048	2520	2016
0	6071	2530	2025
0	6072	2530	2024
0	6095	2540	2033
0	6096	2540	2032
0	6119	2550	2041
0	6120	2550	2040
0	6143	2560	2049
0	6144	2560	2048
0	6167	2570	2057
0	6168	2570	2056
0	6191	2580	2065
0	6192	2580	2064
0	6215	2590	2073
0	6216	2590	2072
0	6239	2600	2081
0	6240	2600	2080
0	6263	2610	2089
0	6264	2610	2088
0	6287	2620	2097
0	6288	2620	2096
0	6311	2630	2105
0	6312	2630	2104
0	6335	2640	2113
0	6336	2640	2112
0	6359	2650	2121
0	6360	2650	2120
0	6383	2660	2129
0	6384	2660	2128
0	6407	2670	2137
0	6408	2670	2136
0	6431	2680	2145
0	6432	2680	2144
0	6455	2690	2153
0	6456	2690	2152
0	6479	2700	2161
0	6480	2700	2160
0	6503	2710	2169
0	6504	2710	2168
0	6527	2720	2177
0	6528	2720	2176
0	6551	2730	2185
0	6552	2730	2184
0	6575	2740	2193
0	6576	2740	2192
0	6599	2750	2201
0	6600	2750	2200
0	6623	2760	2209
0	6624	2760	2208
0	6647	2770	2217
0	6648	2770	2216
0	6671	2780	2225
0	6672	2780	2224
0	6695	2790	2233
0	6696	2790	2232
0	6719	2800	2241
0	6720	2800	2240
0	6743	2810	2249
0	6744	2810	2248
0	6767	2820	2257
0	6768	2820	2256
0	6791	2830	2265
0	6792	2830	2264
0	6815	2840	2273
0	6816	2840	2272
0	6839	2850	2281
0	6840	2850	2280
0	6863	2860	2289
0	6864	2860	2288
0	6887	2870	2297
0	6888	2870	2296
0	6911	2880	2305
0	6912	2880	2304
0	6935	2890	2313
0	6936	2890	2312
0	6959	2900	2321
0	6960	2900	2320
0	6983	2910	2329
0	6984	2910	2328
0	7007	2920	2337
0	7008	2920	2336
0	7031	2930	2345
0	7032	2930	2344
0	7055	2940	2353
0	7056	2940	2352
0	7079	2950	2361
0	7080	2950	2360
0	7103	2960	2369
0	7104	2960	2368
0	7127	2970	2377
0	7128	2970	2376
0	7151	2980	2385
0	7152	2980	2384
0	7175	2990	2393
0	7176	2990	2392
0	7199	3000	2401
0	7200	3000	2400
0	7223	3010	2409
0	7224	3010	2408
0	7247	3020	2417
0	7248	3020	2416
0	7271	3030	2425
0	7272	3030	2424
0	7295	3040	2433
0	7296	3040	2432
0	7319	3050	2441
0	7320	3050	2440
0	7343	3060	2449
0	7344	3060	2448
0	7367	3070	2457
0	7368	3070	2456
0	7391	3080	2465
0	7392	3080	2464
0	7415	3090	2473
0	7416	3090	2472
0	7439	3100	2481
0	7440	3100	2480
0	7463	3110	2489
0	7464	3110	2488
0	7487	3120	2497
0	7488	3120	2496
0	7511	3130	2505
0	7512	3130	2504
0	7535	3140	2513
0	7536	3140	2512
0	7559	3150	2521
0	7560	3150	2520
0	7583	3160	2529
0	7584	3160	2528
0	7607	3170	2537
0	7608	3170	2536
0	7631	3180	2545
0	7632	3180	2544
0	7655	3190	2553
0	7656	3190	2552
0	7679	3200	2561
0	7680	3200	2560
0	7703	3210	2569
0	7704	3210	2568
0	7727	3220	2577
0	7728	3220	2576
0	7751	3230	2585
0	7752	3230	2584
0	7775	3240	2593
0	7776	3240	2592
0	7799	3250	2601
0	7800	3250	2600
0	7823	3260	2609
0	7824	3260	2608
0	7847	3270	2617
0	7848	3270	2616
0	7871	3280	2625
0	7872	3280	2624
0	7895	3290	2633
0	7896	3290	2632
0	7919	3300	2641
0	7920	3300	2640
0	7943	3310	2649
0	7944	3310	2648
0	7967	3320	2657
0	7968	3320	2656
0	7991	3330	2665
0	7992	3330	2664
0	8015	3340	2673
0	8016	3340	2672
0	8039	3350	2681
0	8040	3350	2680
0	8063	3360	2689
0	8064	3360	2688
0	8087	3370	2697
0	8088	3370	2696
0	8111	3380	2705
0	8112	3380	2704
0	8135	3390	2713
0	8136	3390	2712
0	8159	3400	2721
0	8160	3400	2720
0	8183	3410	2729
0	8184	3410	2728
0	8207	3420	2737
0	8208	3420	2736
0	8231	3430	2745
0	8232	3430	2744
0	8255	3440	2753
0	8256	3440	2752
0	8279	3450	2761
0	8280	3450	2760
0	8303	3460	2769
0	8304	3460	2768
0	8327	3470	2777
0	8328	3470	2776
0	8351	3480	2785
0	8352	3480	2784
0	8375	3490	2793
0	8376	3490	2792
0	8399	3500	2801
0	8400	3500	2800
0	8423	3510	2809
0	8424	3510	2808
0	8447	3520	2817
0	8448	3520	2816
0	8471	3530	2825
0	8472	3530	2824
0	8495	3540	2833
0	8496	3540	2832
0	8519	3550	2841
0	8520	3550	2840
0	8543	3560	2849
0	8544	3560	2848
0	8567	3570	2857
0	8568	3570	2856
0	8591	3580	2865
0	8592	3580	2864
0	8615	3590	2873
0	8616	3590	2872
0	8639	3600	2881
0	8640	3600	2880
0	8663	3610	2889
0	8664	3610	2888
0	8687	3620	2897
0	8688	3620	2896
0	8711	3630	2905
0	8712	3630	2904
0	8735	3640	2913
0	8736	3640	2912
0	8759	3650	2921
0	8760	3650	2920
0	8783	3660	2929
0	8784	3660	2928
0	8807	3670	2937
0	8808	3670	2936
0	8831	3680	2945
0	8832	3680	2944
0	8855	3690	2953
0	8856	3690	2952
0	8879	3700	2961
0	8880	3700	2960
0	8903	3710	2969
0	8904	3710	2968
0	8927	3720	2977
0	8928	3720	2976
0	8951	3730	2985
0	8952	3730	2984
0	8975	3740	2993
0	8976	3740	2992
0	8999	3750	3001
0	9000	3750	3000
0	9023	3760	3009
0	9024	3760	3008
0	9047	3770	3017
0	9048	3770	3016
0	9071	3780	3025
0	9072	3780	3024
0	9095	3790	3033
0	9096	3790	3032
0	9119	3800	3041
0	9120	3800	3040
0	9143	3810	3049
0	9144	3810	3048
0	9167	3820	3057
0	9168	3820	3056
0	9191	3830	3065
0	9192	3830	3064
0	9215	3840	3073
0	9216	3840	3072
0	9239	3850	3081
0	9240	3850	3080
0	9263	3860	3089
0	9264	3860	3088
0	9287	3870	3097
0	9288	3870	3096
0	9311	3880	3105
0	9312	3880	3104
0	9335	3890	3113
0	9336	3890	3112
0	9359	3900	3121
0	9360	3900	3120
0	9383	3910	3129
0	9384	3910	3128
0	9407	3920	3137
0	9408	3920	3136
0	9431	3930	3145
0	9432	3930	3144
0	9455	3940	3153
0	9456	3940	3152
0	9479	3950	3161
0	9480	3950	3160
0	9503	3960	3169
0	9504	3960	3168
0	9527	3970	3177
0	9528	3970	3176
0	9551	3980	3185
0	9552	3980	3184
0	9575	3990	3193
0	9576	3990	3192
0	9599	4000	3201
0	9600	4000	3200
0	9623	4010	3209
0	9624	4010	3208
0	9647	4020	3217
0	9648	4020	3216
0	9671	4030	3225
0	9672	4030	3224
0	9695	4040	3233
0	9696	4040	3232
0	9719	4050	3241
0	9720	4050	3240
0	9743	4060	3249
0	9744	4060	3248
0	9767	4070	3257
0	9768	4070	3256
0	9791	4080	3265
0	9792	4080	3264
0	9815	4090	3273
0	9816	4090	3272
0	9839	4100	3281
0	9840	4100	3280
0	9863	4110	3289
0	9864	4110	3288
0	9887	4120	3297
0	9888	4120	3296
0	9911	4130	3305
0	9912	4130	3304
0	9935	4140	3313
0	9936	4140	3312
0	9959	4150	3321
0	9960	4150	3320
0	9983	4160	3329
0	9984	4160	3328
0	10007	4170	3337
0	10008	4170	3336
0	10031	4180	3345
0	10032	4180	3344
0	10055	4190	3353
0	10056	4190	3352
0	10079	4200	3361
0	10080	4200	3360
0	10103	4210	3369
0	10104	4210	3368
0	10127	4220	3377
0	10128	4220	3376
0	10151	4230	3385
0	10152	4230	3384
0	10175	4240	3393
0	10176	4240	3392
0	10199	4250	3401
0	10200	4250	3400
0	10223	4260	3409
0	10224	4260	3408
0	10247	4270	3417
0	10248	4270	3416
0	10271	4280	3425
0	10272	4280	3424
0	10295	4290	3433
0	10296	4290	3432
0	10319	4300	3441
0	10320	4300	3440
0	10343	4310	3449
0	10344	4310	3448
0	10367	4320	3457
0	10368	4320	3456
0	10391	4330	3465
0	10392	4330	3464
0	10415	4340	3473
0	10416	4340	3472
0	10439	4350	3481
0	10440	4350	3480
0	10463	4360	3489
0	10464	4360	3488
0	10487	4370	3497
0	10488	4370	3496
0	10511	4380	3505
0	10512	4380	3504
0	10535	4390	3513
0	10536	4390	3512
0	10559	4400	3521
0	10560	4400	3520
0	10583	4410	3529
0	10584	4410	3528
0	10607	4420	3537
0	10608	4420	3536
0	10631	4430	3545
0	10632	4430	3544
0	10655	4440	3553
0	10656	4440	3552
0	10679	4450	3561
0	10680	4450	3560
0	10703	4460	3569
0	10704	4460	3568
0	10727	4470	3577
0	10728	4470	3576
0	10751	4480	3585
0	10752	4480	3584
0	10775	4490	3593
0	10776	4490	3592
0	10799	4500	3601
0	10800	4500	3600
0	10823	4510	3609
0	10824	4510	3608
0	10847	4520	3617
0	10848	4520	3616
0	10871	4530	3625
0	10872	4530	3624
0	10895	4540	3633
0	10896	4540	3632
0	10919	4550	3641
0	10920	4550	3640
0	10943	4560	3649
0	10944	4560	3648
0	10967	4570	3657
0	10968	4570	3656
0	10991	4580	3665
0	10992	4580	3664
0	11015	4590	3673
0	11016	4590	3672
0	11039	4600	3681
0	11040	4600	3680
0	11063	4610	3689
0	11064	4610	3688
0	11087	4620	3697
0	11088	4620	3696
0	11111	4630	3705
0	11112	4630	3704
0	11135	4640	3713
0	11136	4640	3712
0	11159	4650	3721
0	11160	4650	3720
0	11183	4660	3729
0	11184	4660	3728
0	11207	4670	3737
0	11208	4670	3736
0	11231	4680	3745
0	11232	4680	3744
0	11255	4690	3753
0	11256	4690	3752
0	11279	4700	3761
0	11280	4700	3760
0	11303	4710	3769
0	11304	4710	3768
0	11327	4720	3777
0	11328	4720	3776
0	11351	4730	3785
0	11352	4730	3784
0	11375	4740	3793
0	11376	4740	3792
0	11399	4750	3801
0	11400	4750	3800
0	11423	4760	3809
0	11424	4760	3808
0	11447	4770	3817
0	11448	4770	3816
0	11471	4780	3825
0	11472	4780	3824
0	11495	4790	3833
0	11496	4790	3832
0	11519	4800	3841
0	11520	4800	3840
0	11543	4810	3849
0	11544	4810	3848
0	11567	4820	3857
0	11568	4820	3856
0	11591	4830	3865
0	11592	4830	3864
0	11615	4840	3873
0	11616	4840	3872
0	11639	4850	3881
0	11640	4850	3880
0	11663	4860	3889
0	11664	4860	3888
0	11687	4870	3897
0	11688	4870	3896
0	11711	4880	3905
0	11712	4880	3904
0	11735	4890	3913
0	11736	4890	3912
0	11759	4900	3921
0	11760	4900	3920
0	11783	4910	3929
0	11784	4910	3928
0	11807	4920	3937
0	11808	4920	3936
0	11831	4930	3945
0	11832	4930	3944
0	11855	4940	3953
0	11856	4940	3952
0	11879	4950	3961
0	11880	4950	3960
0	11903	4960	3969
0	11904	4960	3968
0	11927	4970	3977
0	11928	4970	3976
0	11951	4980	3985
0	11952	4980	3984
0	11975	4990	3993
0	11976	4990	3992
0	11999	5000	4001
0	12000	5000	4000
0	12023	5010	4009
0	12024	5010	4008
0	12047	5020	4017
0	12048	5020	4016
0	12071	5030	4025
0	12072	5030	4024
0	12095	5040	4033
0	12096	5040	4032
0	12119	5050	4041
0	12120	5050	4040
0	12143	5060	4049
0	12144	5060	4048
0	12167	5070	4057
0	12168	5070	4056
0	12191	5080	4065
0	12192	5080	4064
0	12215	5090	4073
0	12216	5090	4072
0	12239	5100	4081
0	12240	5100	4080
0	12263	5110	4089
0	12264	5110	4088
0	12287	5120	4097
0	12288	5120	4096
0	12311	5130	4105
0	12312	5130	4104
0	12335	5140	4113
0	12336	5140	4112
0	12359	5150	4121
0	12360	5150	4120
0	12383	5160	4129
0	12384	5160	4128
0	12407	5170	4137
0	12408	5170	4136
0	12431	5180	4145
0	12432	5180	4144
0	12455	5190	4153
0	12456	5190	4152
0	12479	5200	4161
0	12480	5200	4160
0	12503	5210	4169
0	12504	5210	4168
0	12527	5220	4177
0	12528	5220	4176
0	12551	5230	4185
0	12552	5230	4184
0	12575	5240	4193
0	12576	5240	4192
0	12599	5250	4201
0	12600	5250	4200
0	12623	5260	4209
0	12624	5260	4208
0	12647	5270	4217
0	12648	5270	4216
0	12671	5280	4225
0	12672	5280	4224
0	12695	5290	4233
0	12696	5290	4232
0	12719	5300	4241
0	12720	5300	4240
0	12743	5310	4249
0	12744	5310	4248
0	12767	5320	4257
0	12768	5320	4256
0	12791	5330	4265
0	12792	5330	4264
0	12815	5340	4273
0	12816	5340	4272
0	12839	5350	4281
0	12840	5350	4280
0	12863	5360	4289
0	12864	5360	4288
0	12887	5370	4297
0	12888	5370	4296
0	12911	5380	4305
0	12912	5380	4304
0	12935	5390	4313
0	12936	5390	4312
0	12959	5400	4321
0	12960	5400	4320
0	12983	5410	4329
0	12984	5410	4328
0	13007	5420	4337
0	13008	5420	4336
0	13031	5430	4345
0	13032	5430	4344
0	13055	5440	4353
0	13056	5440	4352
0	13079	5450	4361
0	13080	5450	4360
0	13103	5460	4369
0	13104	5460	4368
0	13127	5470	4377
0	13128	5470	4376
0	13151	5480	4385
0	13152	5480	4384
0	13175	5490	4393
0	13176	5490	4392
0	13199	5500	4401
0	13200	5500	4400
0	13223	5510	4409
0	13224	5510	4408
0	13247	5520	4417
0	13248	5520	4416
0	13271	5530	4425
0	13272	5530	4424
0	13295	5540	4433
0	13296	5540	4432
0	13319	5550	4441
0	13320	5550	4440
0	13343	5560	4449
0	13344	5560	4448
0	13367	5570	4457
0	13368	5570	4456
0	13391	5580	4465
0	13392	5580	4464
0	13415	5590	4473
0	13416	5590	4472
0	13439	5600	4481
0	13440	5600	4480
0	13463	5610	4489
0	13464	5610	4488
0	13487	5620	4497
0	13488	5620	4496
0	13511	5630	4505
0	13512	5630	4504
0	13535	5640	4513
0	13536	5640	4512
0	13559	5650	4521
0	13560	5650	4520
0	13583	5660	4529
0	13584	5660	4528
0	13607	5670	4537
0	13608	5670	4536
0	13631	5680	4545
0	13632	5680	4544
0	13655	5690	4553
0	13656	5690	4552
0	13679	5700	4561
0	13680	5700	4560
0	13703	5710	4569
0	13704	5710	4568
0	13727	5720	4577
0	13728	5720	4576
0	13751	5730	4585
0	13752	5730	4584
0	13775	5740	4593
0	13776	5740	4592
0	13799	5750	4601
0	13800	5750	4600
0	13823	5760	4609
0	13824	5760	4608
0	13847	5770	4617
0	13848	5770	4616
0	13871	5780	4625
0	13872	5780	4624
0	13895	5790	4633
0	13896	5790	4632
0	13919	5800	4641
0	13920	5800	4640
0	13943	5810	4649
0	13944	5810	4648
0	13967	5820	4657
0	13968	5820	4656
0	13991	5830	4665
0	13992	5830	4664
0	14015	5840	4673
0	14016	5840	4672
0	14039	5850	4681
0	14040	5850	4680
0	14063	5860	4689
0	14064	5860	4688
0	14087	5870	4697
0	14088	5870	4696
0	14111	5880	4705
0	14112	5880	4704
0	14135	5890	4713
0	14136	5890	4712
0	14159	5900	4721
0	14160	5900	4720
0	14183	5910	4729
0	14184	5910	4728
0	14207	5920	4737
0	14208	5920	4736
0	14231	5930	4745
0	14232	5930	4744
0	14255	5940	4753
0	14256	5940	4752
0	14279	5950	4761
0	14280	5950	4760
0	14303	5960	4769
0	14304	5960	4768
0	14327	5970	4777
0	14328	5970	4776
0	14351	5980	4785
0	14352	5980	4784
0	14375	5990	4793
0	14376	5990	4792
0	14399	6000	4801
0	14400	6000	4800
0	14423	6010	4809
0	14424	6010	4808
0	14447	6020	4817
0	14448	6020	4816
0	14471	6030	4825
0	14472	6030	4824
0	14495	6040	4833
0	14496	6040	4832
0	14519	6050	4841
0	14520	6050	4840
0	14543	6060	4849
0	14544	6060	4848
0	14567	6070	4857
0	14568	6070	4856
0	14591	6080	4865
0	14592	6080	4864
0	14615	6090	4873
0	14616	6090	4872
0	14639	6100	4881
0	14640	6100	4880
0	14663	6110	4889
0	14664	6110	4888
0	14687	6120	4897
0	14688	6120	4896
0	14711	6130	4905
0	14712	6130	4904
0	14735	6140	4913
0	14736	6140	4912
0	14759	6150	4921
0	14760	6150	4920
0	14783	6160	4929
0	14784	6160	4928
0	14807	6170	4937
0	14808	6170	4936
0	14831	6180	4945
0	14832	6180	4944
0	14855	6190	4953
0	14856	6190	4952
0	14879	6200	4961
0	14880	6200	4960
0	14903	6210	4969
0	14904	6210	4968
0	14927	6220	4977
0	14928	6220	4976
0	14951	6230	4985
0	14952	6230	4984
0	14975	6240	4993
0	14976	6240	4992
0	14999	6250	5001
0	15000	6250	5000
0	15023	6260	5009
0	15024	6260	5008
0	15047	6270	5017
0	15048	6270	5016
0	15071	6280	5025
0	15072	6280	5024
0	15095	6290	5033
0	15096	6290	5032
0	15119	6300	5041
0	15120	6300	5040
0	15143	6310	5049
0	15144	6310	5048
0	15167	6320	5057
0	15168	6320	5056
0	15191	6330	5065
0	15192	6330	5064
0	15215	6340	5073
0	15216	6340	5072
0	15239	6350	5081
0	15240	6350	5080
0	15263	6360	5089
0	15264	6360	5088
0	15287	6370	5097
0	15288	6370	5096
0	15311	6380	5105
0	15312	6380	5104
0	15335	6390	5113
0	15336	6390	5112
0	15359	6400	5121
0	15360	6400	5120
0	15383	6410	5129
0	15384	6410	5128
0	15407	6420	5137
0	15408	6420	5136
0	15431	6430	5145
0	15432	6430	5144
0	15455	6440	5153
0	15456	6440	5152
0	15479	6450	5161
0	15480	6450	5160
0	15503	6460	5169
0	15504	6460	5168
0	15527	6470	5177
0	15528	6470	5176
0	15551	6480	5185
0	15552	6480	5184
0	15575	6490	5193
0	15576	6490	5192
0	15599	6500	5201
0	15600	6500	5200
0	15623	6510	5209
0	15624	6510	5208
0	15647	6520	5217
0	15648	6520	5216
0	15671	6530	5225
0	15672	6530	5224
0	15695	6540	5233
0	15696	6540	5232
0	15719	6550	5241
0	15720	6550	5240
0	15743	6560	5249
0	15744	6560	5248
0	15767	6570	5257
0	15768	6570	5256
0	15791	6580	5265
0	15792	6580	5264
0	15815	6590	5273
0	15816	6590	5272
0	15839	6600	5281
0	15840	6600	5280
0	15863	6610	5289
0	15864	6610	5288
0	15887	6620	5297
0	15888	6620	5296
0	15911	6630	5305
0	15912	6630	5304
0	15935	6640	5313
0	15936	6640	5312
0	15959	6650	5321
0	15960	6650	5320
0	15983	6660	5329
0	15984	6660	5328
0	16007	6670	5337
0	16008	6670	5336
0	16031	6680	5345
0	16032	6680	5344
0	16055	6690	5353
0	16056	6690	5352
0	16079	6700	5361
0	16080	6700	5360
0	16103	6710	5369
0	16104	6710	5368
0	16127	6720	5377
0	16128	6720	5376
0	16151	6730	5385
0	16152	6730	5384
0	16175	6740	5393
0	16176	6740	5392
0	16199	6750	5401
0	16200	6750	5400
0	16223	6760	5409
0	16224	6760	5408
0	16247	6770	5417
0	16248	6770	5416
0	16271	6780	5425
0	16272	6780	5424
0	16295	6790	5433
0	16296	6790	5432
0	16319	6800	5441
0	16320	6800	5440
0	16343	6810	5449
0	16344	6810	5448
0	16367	6820	5457
0	16368	6820	5456
0	16391	6830	5465
0	16392	6830	5464
0	16415	6840	5473
0	16416	6840	5472
0	16439	6850	5481
0	16440	6850	5480
0	16463	6860	5489
0	16464	6860	5488
0	16487	6870	5497
0	16488	6870	5496
0	16511	6880	5505
0	16512	6880	5504
0	16535	6890	5513
0	16536	6890	5512
0	16559	6900	5521
0	16560	6900	5520
0	16583	6910	5529
0	16584	6910	5528
0	16607	6920	5537
0	16608	6920	5536
0	16631	6930	5545
0	16632	6930	5544
0	16655	6940	5553
0	16656	6940	5552
0	16679	6950	5561
0	16680	6950	5560
0	16703	6960	5569
0	16704	6960	5568
0	16727	6970	5577
0	16728	6970	5576
0	16751	6980	5585
0	16752	6980	5584
0	16775	6990	5593
0	16776	6990	5592
0	16799	7000	5601
0	16800	7000	5600
0	16823	7010	5609
0	16824	7010	5608
0	16847	7020	5617
0	16848	7020	5616
0	16871	7030	5625
0	16872	7030	5624
0	16895	7040	5633
0	16896	7040	5632
0	16919	7050	5641
0	16920	7050	5640
0	16943	7060	5649
0	16944	7060	5648
0	16967	7070	5657
0	16968	7070	5656
0	16991	7080	5665
0	16992	7080	5664
0	17015	7090	5673
0	17016	7090	5672
0	17039	7100	5681
0	17040	7100	5680
0	17063	7110	5689
0	17064	7110	5688
0	17087	7120	5697
0	17088	7120	5696
0	17111	7130	5705
0	17112	7130	5704
0	17135	7140	5713
0	17136	7140	5712
0	17159	7150	5721
0	17160	7150	5720
0	17183	7160	5729
0	17184	7160	5728
0	17207	7170	5737
0	17208	7170	5736
0	17231	7180	5745
0	17232	7180	5744
0	17255	7190	5753
0	17256	7190	5752
0	17279	7200	5761
0	17280	7200	5760
0	17303	7210	5769
0	17304	7210	5768
0	17327	7220	5777
0	17328	7220	5776
0	17351	7230	5785
0	17352	7230	5784
0	17375	7240	5793
0	17376	7240	5792
0	17399	7250	5801
0	17400	7250	5800
0	17423	7260	5809
0	17424	7260	5808
0	17447	7270	5817
0	17448	7270	5816
0	17471	7280	5825
0	17472	7280	5824
0	17495	7290	5833
0	17496	7290	5832
0	17519	7300	5841
0	17520	7300	5840
0	17543	7310	5849
0	17544	7310	5848
0	17567	7320	5857
0	17568	7320	5856
0	17591	7330	5865
0	17592	7330	5864
0	17615	7340	5873
0	17616	7340	5872
0	17639	7350	5881
0	17640	7350	5880
0	17663	7360	5889
0	17664	7360	5888
0	17687	7370	5897
0	17688	7370	5896
0	17711	7380	5905
0	17712	7380	5904
0	17735	7390	5913
0	17736	7390	5912
0	17759	7400	5921
0	17760	7400	5920
0	17783	7410	5929
0	17784	7410	5928
0	17807	7420	5937
0	17808	7420	5936
0	17831	7430	5945
0	17832	7430	5944
0	17855	7440	5953
0	17856	7440	5952
0	17879	7450	5961
0	17880	7450	5960
0	17903	7460	5969
0	17904	7460	5968
0	17927	7470	5977
0	17928	7470	5976
0	17951	7480	5985
0	17952	7480	5984
0	17975	7490	5993
0	17976	7490	5992
0	17999	7500	6001
0	18000	7500	6000
0	18023	7510	6009
0	18024	7510	6008
0	18047	7520	6017
0	18048	7520	6016
0	18071	7530	6025
0	18072	7530	6024
0	18095	7540	6033
0	18096	7540	6032
0	18119	7550	6041
0	18120	7550	6040
0	18143	7560	6049
0	18144	7560	6048
0	18167	7570	6057
0	18168	7570	6056
0	18191	7580	6065
0	18192	7580	6064
0	18215	7590	6073
0	18216	7590	6072
0	18239	7600	6081
0	18240	7600	6080
0	18263	7610	6089
0	18264	7610	6088
0	18287	7620	6097
0	18288	7620	6096
0	18311	7630	6105
0	18312	7630	6104
0	18335	7640	6113
0	18336	7640	6112
0	18359	7650	6121
0	18360	7650	6120
0	18383	7660	6129
0	18384	7660	6128
0	18407	7670	6137
0	18408	7670	6136
0	18431	7680	6145
0	18432	7680	6144
0	18455	7690	6153
0	18456	7690	6152
0	18479	7700	6161
0	18480	7700	6160
0	18503	7710	6169
0	18504	7710	6168
0	18527	7720	6177
0	18528	7720	6176
0	18551	7730	6185
0	18552	7730	6184
0	18575	7740	6193
0	18576	7740	6192
0	18599	7750	6201
0	18600	7750	6200
0	18623	7760	6209
0	18624	7760	6208
0	18647	7770	6217
0	18648	7770	6216
0	18671	7780	6225
0	18672	7780	6224
0	18695	7790	6233
0	18696	7790	6232
0	18719	7800	6241
0	18720	7800	6240
0	18743	7810	6249
0	18744	7810	6248
0	18767	7820	6257
0	18768	7820	6256
0	18791	7830	6265
0	18792	7830	6264
0	18815	7840	6273
0	18816	7840	6272
0	18839	7850	6281
0	18840	7850	6280
0	18863	7860	6289
0	18864	7860	6288
0	18887	7870	6297
0	18888	7870	6296
0	18911	7880	6305
0	18912	7880	6304
0	18935	7890	6313
0	18936	7890	6312
0	18959	7900	6321
0	18960	7900	6320
0	18983	7910	6329
0	18984	7910	6328
0	19007	7920	6337
0	19008	7920	6336
0	19031	7930	6345
0	19032	7930	6344
0	19055	7940	6353
0	19056	7940	6352
0	19079	7950	6361
0	19080	7950	6360
0	19103	7960	6369
0	19104	7960	6368
0	19127	7970	6377
0	19128	7970	6376
0	19151	7980	6385
0	19152	7980	6384
0	19175	7990	6393
0	19176	7990	6392
0	19199	8000	6401
0	19200	8000	6400
0	19223	8010	6409
0	19224	8010	6408
0	19247	8020	6417
0	19248	8020	6416
0	19271	8030	6425
0	19272	8030	6424
0	19295	8040	6433
0	19296	8040	6432
0	19319	8050	6441
0	19320	8050	6440
0	19343	8060	6449
0	19344	8060	6448
0	19367	8070	6457
0	19368	8070	6456
0	19391	8080	6465
0	19392	8080	6464
0	19415	8090	6473
0	19416	8090	6472
0	19439	8100	6481
0	19440	8100	6480
0	19463	8110	6489
0	19464	8110	6488
0	19487	8120	6497
0	19488	8120	6496
0	19511	8130	6505
0	19512	8130	6504
0	19535	8140	6513
0	19536	8140	6512
0	19559	8150	6521
0	19560	8150	6520
0	19583	8160	6529
0	19584	8160	6528
0	19607	8170	6537
0	19608	8170	6536
0	19631	8180	6545
0	19632	8180	6544
0	19655	8190	6553
0	19656	8190	6552
0	19679	8200	6561
0	19680	8200	6560
0	19703	8210	6569
0	19704	8210	6568
0	19727	8220	6577
0	19728	8220	6576
0	19751	8230	6585
0	19752	8230	6584
0	19775	8240	6593
0	19776	8240	6592
0	19799	8250	6601
0	19800	8250	6600
0	19823	8260	6609
0	19824	8260	6608
0	19847	8270	6617
0	19848	8270	6616
0	19871	8280	6625
0	19872	8280	6624
0	19895	8290	6633
0	19896	8290	6632
0	19919	8300	6641
0	19920	8300	6640
0	19943	8310	6649
0	19944	8310	6648
0	19967	8320	6657
0	19968	8320	6656
0	19991	8330	6665
0	19992	8330	6664
0	20015	8340	6673
0	20016	8340	6672
0	20039	8350	6681
0	20040	8350	6680
0	20063	8360	6689
0	20064	8360	6688
0	20087	8370	6697
0	20088	8370	6696
0	20111	8380	6705
0	20112	8380	6704
0	20135	8390	6713
0	20136	8390	6712
0	20159	8400	6721
0	20160	8400	6720
0	20183	8410	6729
0	20184	8410	6728
0	20207	8420	6737
0	20208	8420	6736
0	20231	8430	6745
0	20232	8430	6744
0	20255	8440	6753
0	20256	8440	6752
0	20279	8450	6761
0	20280	8450	6760
0	20303	8460	6769
0	20304	8460	6768
0	20327	8470	6777
0	20328	8470	6776
0	20351	8480	6785
0	20352	8480	6784
0	20375	8490	6793
0	20376	8490	6792
0	20399	8500	6801
0	20400	8500	6800
0	20423	8510	6809
0	20424	8510	6808
0	20447	8520	6817
0	20448	8520	6816
0	20471	8530	6825
0	20472	8530	6824
0	20495	8540	6833
0	20496	8540	6832
0	20519	8550	6841
0	20520	8550	6840
0	20543	8560	6849
0	20544	8560	6848
0	20567	8570	6857
0	20568	8570	6856
0	20591	8580	6865
0	20592	8580	6864
0	20615	8590	6873
0	20616	8590	6872
0	20639	8600	6881
0	20640	8600	6880
0	20663	8610	6889
0	20664	8610	6888
0	20687	8620	6897
0	20688	8620	6896
0	20711	8630	6905
0	20712	8630	6904
0	20735	8640	6913
0	20736	8640	6912
0	20759	8650	6921
0	20760	8650	6920
0	20783	8660	6929
0	20784	8660	6928
0	20807	8670	6937
0	20808	8670	6936
0	20831	8680	6945
0	20832	8680	6944
0	20855	8690	6953
0	20856	8690	6952
0	20879	8700	6961
0	20880	8700	6960
0	20903	8710	6969
0	20904	8710	6968
0	20927	8720	6977
0	20928	8720	6976
0	20951	8730	6985
0	20952	8730	6984
0	20975	8740	6993
0	20976	8740	6992
0	20999	8750	7001
0	21000	8750	7000
0	21023	8760	7009
0	21024	8760	7008
0	21047	8770	7017
0	21048	8770	7016
0	21071	8780	7025
0	21072	8780	7024
0	21095	8790	7033
0	21096	8790	7032
0	21119	8800	7041
0	21120	8800	7040
0	21143	8810	7049
0	21144	8810	7048
0	21167	8820	7057
0	21168	8820	7056
0	21191	8830	7065
0	21192	8830	7064
0	21215	8840	7073
0	21216	8840	7072
0	21239	8850	7081
0	21240	8850	7080
0	21263	8860	7089
0	21264	8860	7088
0	21287	8870	7097
0	21288	8870	7096
0	21311	8880	7105
0	21312	8880	7104
0	21335	8890	7113
0	21336	8890	7112
0	21359	8900	7121
0	21360	8900	7120
0	21383	8910	7129
0	21384	8910	7128
0	21407	8920	7137
0	21408	8920	7136
0	21431	8930	7145
0	21432	8930	7144
0	21455	8940	7153
0	21456	8940	7152
0	21479	8950	7161
0	21480	8950	7160
0	21503	8960	7169
0	21504	8960	7168
0	21527	8970	7177
0	21528	8970	7176
0	21551	8980	7185
0	21552	8980	7184
0	21575	8990	7193
0	21576	8990	7192
0	21599	9000	7201
0	21600	9000	7200
0	21623	9010	7209
0	21624	9010	7208
0	21647	9020	7217
0	21648	9020	7216
0	21671	9030	7225
0	21672	9030	7224
0	21695	9040	7233
0	21696	9040	7232
0	21719	9050	7241
0	21720	9050	7240
0	21743	9060	7249
0	21744	9060	7248
0	21767	9070	7257
0	21768	9070	7256
0	21791	9080	7265
0	21792	9080	7264
0	21815	9090	7273
0	21816	9090	7272
0	21839	9100	7281
0	21840	9100	7280
0	21863	9110	7289
0	21864	9110	7288
0	21887	9120	7297
0	21888	9120	7296
0	21911	9130	7305
0	21912	9130	7304
0	21935	9140	7313
0	21936	9140	7312
0	21959	9150	7321
0	21960	9150	7320
0	21983	9160	7329
0	21984	9160	7328
0	22007	9170	7337
0	22008	9170	7336
0	22031	9180	7345
0	22032	9180	7344
0	22055	9190	7353
0	22056	9190	7352
0	22079	9200	7361
0	22080	9200	7360
0	22103	9210	7369
0	22104	9210	7368
0	22127	9220	7377
0	22128	9220	7376
0	22151	9230	7385
0	22152	9230	7384
0	22175	9240	7393
0	22176	9240	7392
0	22199	9250	7401
0	22200	9250	7400
0	22223	9260	7409
0	22224	9260	7408
0	22247	9270	7417
0	22248	9270	7416
0	22271	9280	7425
0	22272	9280	7424
0	22295	9290	7433
0	22296	9290	7432
0	22319	9300	7441
0	22320	9300	7440
0	22343	9310	7449
0	22344	9310	7448
0	22367	9320	7457
0	22368	9320	7456
0	22391	9330	7465
0	22392	9330	7464
0	22415	9340	7473
0	22416	9340	7472
0	22439	9350	7481
0	22440	9350	7480
0	22463	9360	7489
0	22464	9360	7488
0	22487	9370	7497
0	22488	9370	7496
0	22511	9380	7505
0	22512	9380	7504
0	22535	9390	7513
0	22536	9390	7512
0	22559	9400	7521
0	22560	9400	7520
0	22583	9410	7529
0	22584	9410	7528
0	22607	9420	7537
0	22608	9420	7536
0	22631	9430	7545
0	22632	9430	7544
0	22655	9440	7553
0	22656	9440	7552
0	22679	9450	7561
0	22680	9450	7560
0	22703	9460	7569
0	22704	9460	7568
0	22727	9470	7577
0	22728	9470	7576
0	22751	9480	7585
0	22752	9480	7584
0	22775	9490	7593
0	22776	9490	7592
0	22799	9500	7601
0	22800	9500	7600
0	22823	9510	7609
0	22824	9510	7608
0	22847	9520	7617
0	22848	9520	7616
0	22871	9530	7625
0	22872	9530	7624
0	22895	9540	7633
0	22896	9540	7632
0	22919	9550	7641
0	22920	9550	7640
0	22943	9560	7649
0	22944	9560	7648
0	22967	9570	7657
0	22968	9570	7656
0	22991	9580	7665
0	22992	9580	7664
0	23015	9590	7673
0	23016	9590	7672
0	23039	9600	7681
0	23040	9600	7680
0	23063	9610	7689
0	23064	9610	7688
0	23087	9620	7697
0	23088	9620	7696
0	23111	9630	7705
0	23112	9630	7704
0	23135	9640	7713
0	23136	9640	7712
0	23159	9650	7721
0	23160	9650	7720
0	23183	9660	7729
0	23184	9660	7728
0	23207	9670	7737
0	23208	9670	7736
0	23231	9680	7745
0	23232	9680	7744
0	23255	9690	7753
0	23256	9690	7752
0	23279	9700	7761
0	23280	9700	7760
0	23303	9710	7769
0	23304	9710	7768
0	23327	9720	7777
0	23328	9720	7776
0	23351	9730	7785
0	23352	9730	7784
0	23375	9740	7793
0	23376	9740	7792
0	23399	9750	7801
0	23400	9750	7800
0	23423	9760	7809
0	23424	9760	7808
0	23447	9770	7817
0	23448	9770	7816
0	23471	9780	7825
0	23472	9780	7824
0	23495	9790	7833
0	23496	9790	7832
0	23519	9800	7841
0	23520	9800	7840
0	23543	9810	7849
0	23544	9810	7848
0	23567	9820	7857
0	23568	9820	7856
0	23591	9830	7865
0	23592	9830	7864
0	23615	9840	7873
0	23616	9840	7872
0	23639	9850	7881
0	23640	9850	7880
0	23663	9860	7889
0	23664	9860	7888
0	23687	9870	7897
0	23688	9870	7896
0	23711	9880	7905
0	23712	9880	7904
0	23735	9890	7913
0	23736	9890	7912
0	23759	9900	7921
0	23760	9900	7920
0	23783	9910	7929
0	23784	9910	7928
0	23807	9920	7937
0	23808	9920	7936
0	23831	9930	7945
0	23832	9930	7944
0	23855	9940	7953
0	23856	9940	7952
0	23879	9950	7961
0	23880	9950	7960
0	23903	9960	7969
0	23904	9960	7968
0	23927	9970	7977
0	23928	9970	7976
0	23951	9980	7985
0	23952	9980	7984
0	23975	9990	7993
0	23976	9990	7992
0	23999	10000	8001
0	24000	10000	8000
0	24023	10010	8009
0	24024	10010	8008
0	24047	10020	8017
0	24048	10020	8016
0	24071	10030	8025
0	24072	10030	8024
0	24095	10040	8033
0	24096	10040	8032
0	24119	10050	8041
0	24120	10050	8040
0	24143	10060	8049
0	24144	10060	8048
0	24167	10070	8057
0	24168	10070	8056
0	24191	10080	8065
0	24192	10080	8064
0	24215	10090	8073
0	24216	10090	8072
0	24239	10100	8081
0	24240	10100	8080
0	24263	10110	8089
0	24264	10110	8088
0	24287	10120	8097
0	24288	10120	8096
0	24311	10130	8105
0	24312	10130	8104
0	24335	10140	8113
0	24336	10140	8112
0	24359	10150	8121
0	24360	10150	8120
0	24383	10160	8129
0	24384	10160	8128
0	24407	10170	8137
0	24408	10170	8136
0	24431	10180	8145
0	24432	10180	8144
0	24455	10190	8153
0	24456	10190	8152
0	24479	10200	8161
0	24480	10200	8160
0	24503	10210	8169
0	24504	10210	8168
0	24527	10220	8177
0	24528	10220	8176
0	24551	10230	8185
0	24552	10230	8184
0	24575	10240	8193
0	24576	10240	8192
0	24599	10250	8201
0	24600	10250	8200
0	24623	10260	8209
0	24624	10260	8208
0	24647	10270	8217
0	24648	10270	8216
0	24671	10280	8225
0	24672	10280	8224
0	24695	10290	8233
0	24696	10290	8232
0	24719	10300	8241
0	24720	10300	8240
0	24743	10310	8249
0	24744	10310	8248
0	24767	10320	8257
0	24768	10320	8256
0	24791	10330	8265
0	24792	10330	8264
0	24815	10340	8273
0	24816	10340	8272
0	24839	10350	8281
0	24840	10350	8280
0	24863	10360	8289
0	24864	10360	8288
0	24887	10370	8297
0	24888	10370	8296
0	24911	10380	8305
0	24912	10380	8304
0	24935	10390	8313
0	24936	10390	8312
0	24959	10400	8321
0	24960	10400	8320
0	24983	10410	8329
0	24984	10410	8328
0	25007	10420	8337
0	25008	10420	8336
0	25031	10430	8345
0	25032	10430	8344
0	25055	10440	8353
0	25056	10440	8352
0	25079	10450	8361
0	25080	10450	8360
0	25103	10460	8369
0	25104	10460	8368
0	25127	10470	8377
0	25128	10470	8376
0	25151	10480	8385
0	25152	10480	8384
0	25175	10490	8393
0	25176	10490	8392
0	25199	10500	8401
0	25200	10500	8400
0	25223	10510	8409
0	25224	10510	8408
0	25247	10520	8417
0	25248	10520	8416
0	25271	10530	8425
0	25272	10530	8424
0	25295	10540	8433
0	25296	10540	8432
0	25319	10550	8441
0	25320	10550	8440
0	25343	10560	8449
0	25344	10560	8448
0	25367	10570	8457
0	25368	10570	8456
0	25391	10580	8465
0	25392	10580	8464
0	25415	10590	8473
0	25416	10590	8472
0	25439	10600	8481
0	25440	10600	8480
0	25463	10610	8489
0	25464	10610	8488
0	25487	10620	8497
0	25488	10620	8496
0	25511	10630	8505
0	25512	10630	8504
0	25535	10640	8513
0	25536	10640	8512
0	25559	10650	8521
0	25560	10650	8520
0	25583	10660	8529
0	25584	10660	8528
0	25607	10670	8537
0	25608	10670	8536
0	25631	10680	8545
0	25632	10680	8544
0	25655	10690	8553
0	25656	10690	8552
0	25679	10700	8561
0	25680	10700	8560
0	25703	10710	8569
0	25704	10710	8568
0	25727	10720	8577
0	25728	10720	8576
0	25751	10730	8585
0	25752	10730	8584
0	25775	10740	8593
0	25776	10740	8592
0	25799	10750	8601
0	25800	10750	8600
0	25823	10760	8609
0	25824	10760	8608
0	25847	10770	8617
0	25848	10770	8616
0	25871	10780	8625
0	25872	10780	8624
0	25895	10790	8633
0	25896	10790	8632
0	25919	10800	8641
0	25920	10800	8640
0	25943	10810	8649
0	25944	10810	8648
0	25967	10820	8657
0	25968	10820	8656
0	25991	10830	8665
0	25992	10830	8664
0	26015	10840	8673
0	26016	10840	8672
0	26039	10850	8681
0	26040	10850	8680
0	26063	10860	8689
0	26064	10860	8688
0	26087	10870	8697
0	26088	10870	8696
0	26111	10880	8705
0	26112	10880	8704
0	26135	10890	8713
0	26136	10890	8712
0	26159	10900	8721
0	26160	10900	8720
0	26183	10910	8729
0	26184	10910	8728
0	26207	10920	8737
0	26208	10920	8736
0	26231	10930	8745
0	26232	10930	8744
0	26255	10940	8753
0	26256	10940	8752
0	26279	10950	8761
0	26280	10950	8760
0	26303	10960	8769
0	26304	10960	8768
0	26327	10970	8777
0	26328	10970	8776
0	26351	10980	8785
0	26352	10980	8784
0	26375	10990	8793
0	26376	10990	8792
0	26399	11000	8801
0	26400	11000	8800
0	26423	11010	8809
0	26424	11010	8808
0	26447	11020	8817
0	26448	11020	8816
0	26471	11030	8825
0	26472	11030	8824
0	26495	11040	8833
0	26496	11040	8832
0	26519	11050	8841
0	26520	11050	8840
0	26543	11060	8849
0	26544	11060	8848
0	26567	11070	8857
0	26568	11070	8856
0	26591	11080	8865
0	26592	11080	8864
0	26615	11090	8873
0	26616	11090	8872
0	26639	11100	8881
0	26640	11100	8880
0	26663	11110	8889
0	26664	11110	8888
0	26687	11120	8897
0	26688	11120	8896
0	26711	11130	8905
0	26712	11130	8904
0	26735	11140	8913
0	26736	11140	8912
0	26759	11150	8921
0	26760	11150	8920
0	26783	11160	8929
0	26784	11160	8928
0	26807	11170	8937
0	26808	11170	8936
0	26831	11180	8945
0	26832	11180	8944
0	26855	11190	8953
0	26856	11190	8952
0	26879	11200	8961
0	26880	11200	8960
0	26903	11210	8969
0	26904	11210	8968
0	26927	11220	8977
0	26928	11220	8976
0	26951	11230	8985
0	26952	11230	8984
0	26975	11240	8993
0	26976	11240	8992
0	26999	11250	9001
0	27000	11250	9000
0	27023	11260	9009
0	27024	11260	9008
0	27047	11270	9017
0	27048	11270	9016
0	27071	11280	9025
0	27072	11280	9024
0	27095	11290	9033
0	27096	11290	9032
0	27119	11300	9041
0	27120	11300	9040
0	27143	11310	9049
0	27144	11310	9048
0	27167	11320	9057
0	27168	11320	9056
0	27191	11330	9065
0	27192	11330	9064
0	27215	11340	9073
0	27216	11340	9072
0	27239	11350	9081
0	27240	11350	9080
0	27263	11360	9089
0	27264	11360	9088
0	27287	11370	9097
0	27288	11370	9096
0	27311	11380	9105
0	27312	11380	9104
0	27335	11390	9113
0	27336	11390	9112
0	27359	11400	9121
0	27360	11400	9120
0	27383	11410	9129
0	27384	11410	9128
0	27407	11420	9137
0	27408	11420	9136
0	27431	11430	9145
0	27432	11430	9144
0	27455	11440	9153
0	27456	11440	9152
0	27479	11450	9161
0	27480	11450	9160
0	27503	11460	9169
0	27504	11460	9168
0	27527	11470	9177
0	27528	11470	9176
0	27551	11480	9185
0	27552	11480	9184
0	27575	11490	9193
0	27576	11490	9192
0	27599	11500	9201
0	27600	11500	9200
0	27623	11510	9209
0	27624	11510	9208
0	27647	11520	9217
0	27648	11520	9216
0	27671	11530	9225
0	27672	11530	9224
0	27695	11540	9233
0	27696	11540	9232
0	27719	11550	9241
0	27720	11550	9240
0	27743	11560	9249
0	27744	11560	9248
0	27767	11570	9257
0	27768	11570	9256
0	27791	11580	9265
0	27792	11580	9264
0	27815	11590	9273
0	27816	11590	9272
0	27839	11600	9281
0	27840	11600	9280
0	27863	11610	9289
0	27864	11610	9288
0	27887	11620	9297
0	27888	11620	9296
0	27911	11630	9305
0	27912	11630	9304
0	27935	11640	9313
0	27936	11640	9312
0	27959	11650	9321
0	27960	11650	9320
0	27983	11660	9329
0	27984	11660	9328
0	28007	11670	9337
0	28008	11670	9336
0	28031	11680	9345
0	28032	11680	9344
0	28055	11690	9353
0	28056	11690	9352
0	28079	11700	9361
0	28080	11700	9360
0	28103	11710	9369
0	28104	11710	9368
0	28127	11720	9377
0	28128	11720	9376
0	28151	11730	9385
0	28152	11730	9384
0	28175	11740	9393
0	28176	11740	9392
0	28199	11750	9401
0	28200	11750	9400
0	28223	11760	9409
0	28224	11760	9408
0	28247	11770	9417
0	28248	11770	9416
0	28271	11780	9425
0	28272	11780	9424
0	28295	11790	9433
0	28296	11790	9432
0	28319	11800	9441
0	28320	11800	9440
0	28343	11810	9449
0	28344	11810	9448
0	28367	11820	9457
0	28368	11820	9456
0	28391	11830	9465
0	28392	11830	9464
0	28415	11840	9473
0	28416	11840	9472
0	28439	11850	9481
0	28440	11850	9480
0	28463	11860	9489
0	28464	11860	9488
0	28487	11870	9497
0	28488	11870	9496
0	28511	11880	9505
0	28512	11880	9504
0	28535	11890	9513
0	28536	11890	9512
0	28559	11900	9521
0	28560	11900	9520
0	28583	11910	9529
0	28584	11910	9528
0	28607	11920	9537
0	28608	11920	9536
0	28631	11930	9545
0	28632	11930	9544
0	28655	11940	9553
0	28656	11940	9552
0	28679	11950	9561
0	28680	11950	9560
0	28703	11960	9569
0	28704	11960	9568
0	28727	11970	9577
0	28728	11970	9576
0	28751	11980	9585
0	28752	11980	9584
0	28775	11990	9593
0	28776	11990	9592
0	28799	12000	9601
0	28800	12000	9600
0	28823	12010	9609
0	28824	12010	9608
0	28847	12020	9617
0	28848	12020	9616
0	28871	12030	9625
0	28872	12030	9624
0	28895	12040	9633
0	28896	12040	9632
0	28919	12050	9641
0	28920	12050	9640
0	28943	12060	9649
0	28944	12060	9648
0	28967	12070	9657
0	28968	12070	9656
0	28991	12080	9665
0	28992	12080	9664
0	29015	12090	9673
0	29016	12090	9672
0	29039	12100	9681
0	29040	12100	9680
0	29063	12110	9689
0	29064	12110	9688
0	29087	12120	9697
0	29088	12120	9696
0	29111	12130	9705
0	29112	12130	9704
0	29135	12140	9713
0	29136	12140	9712
0	29159	12150	9721
0	29160	12150	9720
0	29183	12160	9729
0	29184	12160	9728
0	29207	12170	9737
0	29208	12170	9736
0	29231	12180	9745
0	29232	12180	9744
0	29255	12190	9753
0	29256	12190	9752
0	29279	12200	9761
0	29280	12200	9760
0	29303	12210	9769
0	29304	12210	9768
0	29327	12220	9777
0	29328	12220	9776
0	29351	12230	9785
0	29352	12230	9784
0	29375	12240	9793
0	29376	12240	9792
0	29399	12250	9801
0	29400	12250	9800
0	29423	12260	9809
0	29424	12260	9808
0	29447	12270	9817
0	29448	12270	9816
0	29471	12280	9825
0	29472	12280	9824
0	29495	12290	9833
0	29496	12290	9832
0	29519	12300	9841
0	29520	12300	9840
0	29543	12310	9849
0	29544	12310	9848
0	29567	12320	9857
0	29568	12320	9856
0	29591	12330	9865
0	29592	12330	9864
0	29615	12340	9873
0	29616	12340	9872
0	29639	12350	9881
0	29640	12350	9880
0	29663	12360	9889
0	29664	12360	9888
0	29687	12370	9897
0	29688	12370	9896
0	29711	12380	9905
0	29712	12380	9904
0	29735	12390	9913
0	29736	12390	9912
0	29759	12400	9921
0	29760	12400	9920
0	29783	12410	9929
0	29784	12410	9928
0	29807	12420	9937
0	29808	12420	9936
0	29831	12430	9945
0	29832	12430	9944
0	29855	12440	9953
0	29856	12440	9952
0	29879	12450	9961
0	29880	12450	9960
0	29903	12460	9969
0	29904	12460	9968
0	29927	12470	9977
0	29928	12470	9976
0	29951	12480	9985
0	29952	12480	9984
0	29975	12490	9993
0	29976	12490	9992
0	29999	12500	10001
0	30000	12500	10000
0	30023	12510	10009
0	30024	12510	10008
0	30047	12520	10017
0	30048	12520	10016
0	30071	12530	10025
0	30072	12530	10024
0	30095	12540	10033
0	30096	12540	10032
0	30119	12550	10041
0	30120	12550	10040
0	30143	12560	10049
0	30144	12560	10048
0	30167	12570	10057
0	30168	12570	10056
0	30191	12580	10065
0	30192	12580	10064
0	30215	12590	10073
0	30216	12590	10072
0	30239	12600	10081
0	30240	12600	10080
0	30263	12610	10089
0	30264	12610	10088
0	30287	12620	10097
0	30288	12620	10096
0	30311	12630	10105
0	30312	12630	10104
0	30335	12640	10113
0	30336	12640	10112
0	30359	12650	10121
0	30360	12650	10120
0	30383	12660	10129
0	30384	12660	10128
0	30407	12670	10137
0	30408	12670	10136
0	30431	12680	10145
0	30432	12680	10144
0	30455	12690	10153
0	30456	12690	10152
0	30479	12700	10161
0	30480	12700	10160
0	30503	12710	10169
0	30504	12710	10168
0	30527	12720	10177
0	30528	12720	10176
0	30551	12730	10185
0	30552	12730	10184
0	30575	12740	10193
0	30576	12740	10192
0	30599	12750	10201
0	30600	12750	10200
0	30623	12760	10209
0	30624	12760	10208
0	30647	12770	10217
0	30648	12770	10216
0	30671	12780	10225
0	30672	12780	10224
0	30695	12790	10233
0	30696	12790	10232
0	30719	12800	10241
0	30720	12800	10240
0	30743	12810	10249
0	30744	12810	10248
0	30767	12820	10257
0	30768	12820	10256
0	30791	12830	10265
0	30792	12830	10264
0	30815	12840	10273
0	30816	12840	10272
0	30839	12850	10281
0	30840	12850	10280
0	30863	12860	10289
0	30864	12860	10288
0	30887	12870	10297
0	30888	12870	10296
0	30911	12880	10305
0	30912	12880	10304
0	30935	12890	10313
0	30936	12890	10312
0	30959	12900	10321
0	30960	12900	10320
0	30983	12910	10329
0	30984	12910	10328
0	31007	12920	10337
0	31008	12920	10336
0	31031	12930	10345
0	31032	12930	10344
0	31055	12940	10353
0	31056	12940	10352
0	31079	12950	10361
0	31080	12950	10360
0	31103	12960	10369
0	31104	12960	10368
0	31127	12970	10377
0	31128	12970	10376
0	31151	12980	10385
0	31152	12980	10384
0	31175	12990	10393
0	31176	12990	10392
0	31199	13000	10401
0	31200	13000	10400
0	31223	13010	10409
0	31224	13010	10408
0	31247	13020	10417
0	31248	13020	10416
0	31271	13030	10425
0	31272	13030	10424
0	31295	13040	10433
0	31296	13040	10432
0	31319	13050	10441
0	31320	13050	10440
0	31343	13060	10449
0	31344	13060	10448
0	31367	13070	10457
0	31368	13070	10456
0	31391	13080	10465
0	31392	13080	10464
0	31415	13090	10473
0	31416	13090	10472
0	31439	13100	10481
0	31440	13100	10480
0	31463	13110	10489
0	31464	13110	10488
0	31487	13120	10497
0	31488	13120	10496
0	31511	13130	10505
0	31512	13130	10504
0	31535	13140	10513
0	31536	13140	10512
0	31559	13150	10521
0	31560	13150	10520
0	31583	13160	10529
0	31584	13160	10528
0	31607	13170	10537
0	31608	13170	10536
0	31631	13180	10545
0	31632	13180	10544
0	31655	13190	10553
0	31656	13190	10552
0	31679	13200	10561
0	31680	13200	10560
0	31703	13210	10569
0	31704	13210	10568
0	31727	13220	10577
0	31728	13220	10576
0	31751	13230	10585
0	31752	13230	10584
0	31775	13240	10593
0	31776	13240	10592
0	31799	13250	10601
0	31800	13250	10600
0	31823	13260	10609
0	31824	13260	10608
0	31847	13270	10617
0	31848	13270	10616
0	31871	13280	10625
0	31872	13280	10624
0	31895	13290	10633
0	31896	13290	10632
0	31919	13300	10641
0	31920	13300	10640
0	31943	13310	10649
0	31944	13310	10648
0	31967	13320	10657
0	31968	13320	10656
0	31991	13330	10665
0	31992	13330	10664
0	32015	13340	10673
0	32016	13340	10672
0	32039	13350	10681
0	32040	13350	10680
0	32063	13360	10689
0	32064	13360	10688
0	32087	13370	10697
0	32088	13370	10696
0	32111	13380	10705
0	32112	13380	10704
0	32135	13390	10713
0	32136	13390	10712
0	32159	13400	10721
0	32160	13400	10720
0	32183	13410	10729
0	32184	13410	10728
0	32207	13420	10737
0	32208	13420	10736
0	32231	13430	10745
0	32232	13430	10744
0	32255	13440	10753
0	32256	13440	10752
0	32279	13450	10761
0	32280	13450	10760
0	32303	13460	10769
0	32304	13460	10768
0	32327	13470	10777
0	32328	13470	10776
0	32351	13480	10785
0	32352	13480	10784
0	32375	13490	10793
0	32376	13490	10792
0	32399	13500	10801
0	32400	13500	10800
0	32423	13510	10809
0	32424	13510	10808
0	32447	13520	10817
0	32448	13520	10816
0	32471	13530	10825
0	32472	13530	10824
0	32495	13540	10833
0	32496	13540	10832
0	32519	13550	10841
0	32520	13550	10840
0	32543	13560	10849
0	32544	13560	10848
0	32567	13570	10857
0	32568	13570	10856
0	32591	13580	10865
0	32592	13580	10864
0	32615	13590	10873
0	32616	13590	10872
0	32639	13600	10881
0	32640	13600	10880
0	32663	13610	10889
0	32664	13610	10888
0	32687	13620	10897
0	32688	13620	10896
0	32711	13630	10905
0	32712	13630	10904
0	32735	13640	10913
0	32736	13640	10912
0	32759	13650	10921
0	32760	13650	10920
0	32783	13660	10929
0	32784	13660	10928
0	32807	13670	10937
0	32808	13670	10936
0	32831	13680	10945
0	32832	13680	10944
0	32855	13690	10953
0	32856	13690	10952
0	32879	13700	10961
0	32880	13700	10960
0	32903	13710	10969
0	32904	13710	10968
0	32927	13720	10977
0	32928	13720	10976
0	32951	13730	10985
0	32952	13730	10984
0	32975	13740	10993
0	32976	13740	10992
0	32999	13750	11001
0	33000	13750	11000
0	33023	13760	11009
0	33024	13760	11008
0	33047	13770	11017
0	33048	13770	11016
0	33071	13780	11025
0	33072	13780	11024
0	33095	13790	11033
0	33096	13790	11032
0	33119	13800	11041
0	33120	13800	11040
0	33143	13810	11049
0	33144	13810	11048
0	33167	13820	11057
0	33168	13820	11056
0	33191	13830	11065
0	33192	13830	11064
0	33215	13840	11073
0	33216	13840	11072
0	33239	13850	11081
0	33240	13850	11080
0	33263	13860	11089
0	33264	13860	11088
0	33287	13870	11097
0	33288	13870	11096
0	33311	13880	11105
0	33312	13880	11104
0	33335	13890	11113
0	33336	13890	11112
0	33359	13900	11121
0	33360	13900	11120
0	33383	13910	11129
0	33384	13910	11128
0	33407	13920	11137
0	33408	13920	11136
0	33431	13930	11145
0	33432	13930	11144
0	33455	13940	11153
0	33456	13940	11152
0	33479	13950	11161
0	33480	13950	11160
0	33503	13960	11169
0	33504	13960	11168
0	33527	13970	11177
0	33528	13970	11176
0	33551	13980	11185
0	33552	13980	11184
0	33575	13990	11193
0	33576	13990	11192
0	33599	14000	11201
0	33600	14000	11200
0	33623	14010	11209
0	33624	14010	11208
0	33647	14020	11217
0	33648	14020	11216
0	33671	14030	11225
0	33672	14030	11224
0	33695	14040	11233
0	33696	14040	11232
0	33719	14050	11241
0	33720	14050	11240
0	33743	14060	11249
0	33744	14060	11248
0	33767	14070	11257
0	33768	14070	11256
0	33791	14080	11265
0	33792	14080	11264
0	33815	14090	11273
0	33816	14090	11272
0	33839	14100	11281
0	33840	14100	11280
0	33863	14110	11289
0	33864	14110	11288
0	33887	14120	11297
0	33888	14120	11296
0	33911	14130	11305
0	33912	14130	11304
0	33935	14140	11313
0	33936	14140	11312
0	33959	14150	11321
0	33960	14150	11320
0	33983	14160	11329
0	33984	14160	11328
0	34007	14170	11337
0	34008	14170	11336
0	34031	14180	11345
0	34032	14180	11344
0	34055	14190	11353
0	34056	14190	11352
0	34079	14200	11361
0	34080	14200	11360
0	34103	14210	11369
0	34104	14210	11368
0	34127	14220	11377
0	34128	14220	11376
0	34151	14230	11385
0	34152	14230	11384
0	34175	14240	11393
0	34176	14240	11392
0	34199	14250	11401
0	34200	14250	11400
0	34223	14260	11409
0	34224	14260	11408
0	34247	14270	11417
0	34248	14270	11416
0	34271	14280	11425
0	34272	14280	11424
0	34295	14290	11433
0	34296	14290	11432
0	34319	14300	11441
0	34320	14300	11440
0	34343	14310	11449
0	34344	14310	11448
0	34367	14320	11457
0	34368	14320	11456
0	34391	14330	11465
0	34392	14330	11464
0	34415	14340	11473
0	34416	14340	11472
0	34439	14350	11481
0	34440	14350	11480
0	34463	14360	11489
0	34464	14360	11488
0	34487	14370	11497
0	34488	14370	11496
0	34511	14380	11505
0	34512	14380	11504
0	34535	14390	11513
0	34536	14390	11512
0	34559	14400	11521
0	34560	14400	11520
0	34583	14410	11529
0	34584	14410	11528
0	34607	14420	11537
0	34608	14420	11536
0	34631	14430	11545
0	34632	14430	11544
0	34655	14440	11553
0	34656	14440	11552
0	34679	14450	11561
0	34680	14450	11560
0	34703	14460	11569
0	34704	14460	11568
0	34727	14470	11577
0	34728	14470	11576
0	34751	14480	11585
0	34752	14480	11584
0	34775	14490	11593
0	34776	14490	11592
0	34799	14500	11601
0	34800	14500	11600
0	34823	14510	11609
0	34824	14510	11608
0	34847	14520	11617
0	34848	14520	11616
0	34871	14530	11625
0	34872	14530	11624
0	34895	14540	11633
0	34896	14540	11632
0	34919	14550	11641
0	34920	14550	11640
0	34943	14560	11649
0	34944	14560	11648
0	34967	14570	11657
0	34968	14570	11656
0	34991	14580	11665
0	34992	14580	11664
0	35015	14590	11673
0	35016	14590	11672
0	35039	14600	11681
0	35040	14600	11680
0	35063	14610	11689
0	35064	14610	11688
0	35087	14620	11697
0	35088	14620	11696
0	35111	14630	11705
0	35112	14630	11704
0	35135	14640	11713
0	35136	14640	11712
0	35159	14650	11721
0	35160	14650	11720
0	35183	14660	11729
0	35184	14660	11728
0	35207	14670	11737
0	35208	14670	11736
0	35231	14680	11745
0	35232	14680	11744
0	35255	14690	11753
0	35256	14690	11752
0	35279	14700	11761
0	35280	14700	11760
0	35303	14710	11769
0	35304	14710	11768
0	35327	14720	11777
0	35328	14720	11776
0	35351	14730	11785
0	35352	14730	11784
0	35375	14740	11793
0	35376	14740	11792
0	35399	14750	11801
0	35400	14750	11800
0	35423	14760	11809
0	35424	14760	11808
0	35447	14770	11817
0	35448	14770	11816
0	35471	14780	11825
0	35472	14780	11824
0	35495	14790	11833
0	35496	14790	11832
0	35519	14800	11841
0	35520	14800	11840
0	35543	14810	11849
0	35544	14810	11848
0	35567	14820	11857
0	35568	14820	11856
0	35591	14830	11865
0	35592	14830	11864
0	35615	14840	11873
0	35616	14840	11872
0	35639	14850	11881
0	35640	14850	11880
0	35663	14860	11889
0	35664	14860	11888
0	35687	14870	11897
0	35688	14870	11896
0	35711	14880	11905
0	35712	14880	11904
0	35735	14890	11913
0	35736	14890	11912
0	35759	14900	11921
0	35760	14900	11920
0	35783	14910	11929
0	35784	14910	11928
0	35807	14920	11937
0	35808	14920	11936
0	35831	14930	11945
0	35832	14930	11944
0	35855	14940	11953
0	35856	14940	11952
0	35879	14950	11961
0	35880	14950	11960
0	35903	14960	11969
0	35904	14960	11968
0	35927	14970	11977
0	35928	14970	11976
0	35951	14980	11985
0	35952	14980	11984
0	35975	14990	11993
0	35976	14990	11992
0	35999	15000	12001
0	36000	15000	12000
0	36023	15010	12009
0	36024	15010	12008
0	36047	15020	12017
0	36048	15020	12016
0	36071	15030	12025
0	36072	15030	12024
0	36095	15040	12033
0	36096	15040	12032
0	36119	15050	12041
0	36120	15050	12040
0	36143	15060	12049
0	36144	15060	12048
0	36167	15070	12057
0	36168	15070	12056
0	36191	15080	12065
0	36192	15080	12064
0	36215	15090	12073
0	36216	15090	12072
0	36239	15100	12081
0	36240	15100	12080
0	36263	15110	12089
0	36264	15110	12088
0	36287	15120	12097
0	36288	15120	12096
0	36311	15130	12105
0	36312	15130	12104
0	36335	15140	12113
0	36336	15140	12112
0	36359	15150	12121
0	36360	15150	12120
0	36383	15160	12129
0	36384	15160	12128
0	36407	15170	12137
0	36408	15170	12136
0	36431	15180	12145
0	36432	15180	12144
0	36455	15190	12153
0	36456	15190	12152
0	36479	15200	12161
0	36480	15200	12160
0	36503	15210	12169
0	36504	15210	12168
0	36527	15220	12177
0	36528	15220	12176
0	36551	15230	12185
0	36552	15230	12184
0	36575	15240	12193
0	36576	15240	12192
0	36599	15250	12201
0	36600	15250	12200
0	36623	15260	12209
0	36624	15260	12208
0	36647	15270	12217
0	36648	15270	12216
0	36671	15280	12225
0	36672	15280	12224
0	36695	15290	12233
0	36696	15290	12232
0	36719	15300	12241
0	36720	15300	12240
0	36743	15310	12249
0	36744	15310	12248
0	36767	15320	12257
0	36768	15320	12256
0	36791	15330	12265
0	36792	15330	12264
0	36815	15340	12273
0	36816	15340	12272
0	36839	15350	12281
0	36840	15350	12280
0	36863	15360	12289
0	36864	15360	12288
0	36887	15370	12297
0	36888	15370	12296
0	36911	15380	12305
0	36912	15380	12304
0	36935	15390	12313
0	36936	15390	12312
0	36959	15400	12321
0	36960	15400	12320
0	36983	15410	12329
0	36984	15410	12328
0	37007	15420	12337
0	37008	15420	12336
0	37031	15430	12345
0	37032	15430	12344
0	37055	15440	12353
0	37056	15440	12352
0	37079	15450	12361
0	37080	15450	12360
0	37103	15460	12369
0	37104	15460	12368
0	37127	15470	12377
0	37128	15470	12376
0	37151	15480	12385
0	37152	15480	12384
0	37175	15490	12393
0	37176	15490	12392
0	37199	15500	12401
0	37200	15500	12400
0	37223	15510	12409
0	37224	15510	12408
0	37247	15520	12417
0	37248	15520	12416
0	37271	15530	12425
0	37272	15530	12424
0	37295	15540	12433
0	37296	15540	12432
0	37319	15550	12441
0	37320	15550	12440
0	37343	15560	12449
0	37344	15560	12448
0	37367	15570	12457
0	37368	15570	12456
0	37391	15580	12465
0	37392	15580	12464
0	37415	15590	12473
0	37416	15590	12472
0	37439	15600	12481
0	37440	15600	12480
0	37463	15610	12489
0	37464	15610	12488
0	37487	15620	12497
0	37488	15620	12496
0	37511	15630	12505
0	37512	15630	12504
0	37535	15640	12513
0	37536	15640	12512
0	37559	15650	12521
0	37560	15650	12520
0	37583	15660	12529
0	37584	15660	12528
0	37607	15670	12537
0	37608	15670	12536
0	37631	15680	12545
0	37632	15680	12544
0	37655	15690	12553
0	37656	15690	12552
0	37679	15700	12561
0	37680	15700	12560
0	37703	15710	12569
0	37704	15710	12568
0	37727	15720	12577
0	37728	15720	12576
0	37751	15730	12585
0	37752	15730	12584
0	37775	15740	12593
0	37776	15740	12592
0	37799	15750	12601
0	37800	15750	12600
0	37823	15760	12609
0	37824	15760	12608
0	37847	15770	12617
0	37848	15770	12616
0	37871	15780	12625
0	37872	15780	12624
0	37895	15790	12633
0	37896	15790	12632
0	37919	15800	12641
0	37920	15800	12640
0	37943	15810	12649
0	37944	15810	12648
0	37967	15820	12657
0	37968	15820	12656
0	37991	15830	12665
0	37992	15830	12664
0	38015	15840	12673
0	38016	15840	12672
0	38039	15850	12681
0	38040	15850	12680
0	38063	15860	12689
0	38064	15860	12688
0	38087	15870	12697
0	38088	15870	12696
0	38111	15880	12705
0	38112	15880	12704
0	38135	15890	12713
0	38136	15890	12712
0	38159	15900	12721
0	38160	15900	12720
0	38183	15910	12729
0	38184	15910	12728
0	38207	15920	12737
0	38208	15920	12736
0	38231	15930	12745
0	38232	15930	12744
0	38255	15940	12753
0	38256	15940	12752
0	38279	15950	12761
0	38280	15950	12760
0	38303	15960	12769
0	38304	15960	12768
0	38327	15970	12777
0	38328	15970	12776
0	38351	15980	12785
0	38352	15980	12784
0	38375	15990	12793
0	38376	15990	12792
0	38399	16000	12801
0	38400	16000	12800
0	38423	16010	12809
0	38424	16010	12808
0	38447	16020	12817
0	38448	16020	12816
0	38471	16030	12825
0	38472	16030	12824
0	38495	16040	12833
0	38496	16040	12832
0	38519	16050	12841
0	38520	16050	12840
0	38543	16060	12849
0	38544	16060	12848
0	38567	16070	12857
0	38568	16070	12856
0	38591	16080	12865
0	38592	16080	12864
0	38615	16090	12873
0	38616	16090	12872
0	38639	16100	12881
0	38640	16100	12880
0	38663	16110	12889
0	38664	16110	12888
0	38687	16120	12897
0	38688	16120	12896
0	38711	16130	12905
0	38712	16130	12904
0	38735	16140	12913
0	38736	16140	12912
0	38759	16150	12921
0	38760	16150	12920
0	38783	16160	12929
0	38784	16160	12928
0	38807	16170	12937
0	38808	16170	12936
0	38831	16180	12945
0	38832	16180	12944
0	38855	16190	12953
0	38856	16190	12952
0	38879	16200	12961
0	38880	16200	12960
0	38903	16210	12969
0	38904	16210	12968
0	38927	16220	12977
0	38928	16220	12976
0	38951	16230	12985
0	38952	16230	12984
0	38975	16240	12993
0	38976	16240	12992
0	38999	16250	13001
0	39000	16250	13000
0	39023	16260	13009
0	39024	16260	13008
0	39047	16270	13017
0	39048	16270	13016
0	39071	16280	13025
0	39072	16280	13024
0	39095	16290	13033
0	39096	16290	13032
0	39119	16300	13041
0	39120	16300	13040
0	39143	16310	13049
0	39144	16310	13048
0	39167	16320	13057
0	39168	16320	13056
0	39191	16330	13065
0	39192	16330	13064
0	39215	16340	13073
0	39216	16340	13072
0	39239	16350	13081
0	39240	16350	13080
0	39263	16360	13089
0	39264	16360	13088
0	39287	16370	13097
0	39288	16370	13096
0	39311	16380	13105
0	39312	16380	13104
0	39335	16390	13113
0	39336	16390	13112
0	39359	16400	13121
0	39360	16400	13120
0	39383	16410	13129
0	39384	16410	13128
0	39407	16420	13137
0	39408	16420	13136
0	39431	16430	13145
0	39432	16430	13144
0	39455	16440	13153
0	39456	16440	13152
0	39479	16450	13161
0	39480	16450	13160
0	39503	16460	13169
0	39504	16460	13168
0	39527	16470	13177
0	39528	16470	13176
0	39551	16480	13185
0	39552	16480	13184
0	39575	16490	13193
0	39576	16490	13192
0	39599	16500	13201
0	39600	16500	13200
0	39623	16510	13209
0	39624	16510	13208
0	39647	16520	13217
0	39648	16520	13216
0	39671	16530	13225
0	39672	16530	13224
0	39695	16540	13233
0	39696	16540	13232
0	39719	16550	13241
0	39720	16550	13240
0	39743	16560	13249
0	39744	16560	13248
0	39767	16570	13257
0	39768	16570	13256
0	39791	16580	13265
0	39792	16580	13264
0	39815	16590	13273
0	39816	16590	13272
0	39839	16600	13281
0	39840	16600	13280
0	39863	16610	13289
0	39864	16610	13288
0	39887	16620	13297
0	39888	16620	13296
0	39911	16630	13305
0	39912	16630	13304
0	39935	16640	13313
0	39936	16640	13312
0	39959	16650	13321
0	39960	16650	13320
0	39983	16660	13329
0	39984	16660	13328
0	40007	16670	13337
0	40008	16670	13336
0	40031	16680	13345
0	40032	16680	13344
0	40055	16690	13353
0	40056	16690	13352
0	40079	16700	13361
0	40080	16700	13360
0	40103	16710	13369
0	40104	16710	13368
0	40127	16720	13377
0	40128	16720	13376
0	40151	16730	13385
0	40152	16730	13384
0	40175	16740	13393
0	40176	16740	13392
0	40199	16750	13401
0	40200	16750	13400
0	40223	16760	13409
0	40224	16760	13408
0	40247	16770	13417
0	40248	16770	13416
0	40271	16780	13425
0	40272	16780	13424
0	40295	16790	13433
0	40296	16790	13432
0	40319	16800	13441
0	40320	16800	13440
0	40343	16810	13449
0	40344	16810	13448
0	40367	16820	13457
0	40368	16820	13456
0	40391	16830	13465
0	40392	16830	13464
0	40415	16840	13473
0	40416	16840	13472
0	40439	16850	13481
0	40440	16850	13480
0	40463	16860	13489
0	40464	16860	13488
0	40487	16870	13497
0	40488	16870	13496
0	40511	16880	13505
0	40512	16880	13504
0	40535	16890	13513
0	40536	16890	13512
0	40559	16900	13521
0	40560	16900	13520
0	40583	16910	13529
0	40584	16910	13528
0	40607	16920	13537
0	40608	16920	13536
0	40631	16930	13545
0	40632	16930	13544
0	40655	16940	13553
0	40656	16940	13552
0	40679	16950	13561
0	40680	16950	13560
0	40703	16960	13569
0	40704	16960	13568
0	40727	16970	13577
0	40728	16970	13576
0	40751	16980	13585
0	40752	16980	13584
0	40775	16990	13593
0	40776	16990	13592
0	40799	17000	13601
0	40800	17000	13600
0	40823	17010	13609
0	40824	17010	13608
0	40847	17020	13617
0	40848	17020	13616
0	40871	17030	13625
0	40872	17030	13624
0	40895	17040	13633
0	40896	17040	13632
0	40919	17050	13641
0	40920	17050	13640
0	40943	17060	13649
0	40944	17060	13648
0	40967	17070	13657
0	40968	17070	13656
0	40991	17080	13665
0	40992	17080	13664
0	41015	17090	13673
0	41016	17090	13672
0	41039	17100	13681
0	41040	17100	13680
0	41063	17110	13689
0	41064	17110	13688
0	41087	17120	13697
0	41088	17120	13696
0	41111	17130	13705
0	41112	17130	13704
0	41135	17140	13713
0	41136	17140	13712
0	41159	17150	13721
0	41160	17150	13720
0	41183	17160	13729
0	41184	17160	13728
0	41207	17170	13737
0	41208	17170	13736
0	41231	17180	13745
0	41232	17180	13744
0	41255	17190	13753
0	41256	17190	13752
0	41279	17200	13761
0	41280	17200	13760
0	41303	17210	13769
0	41304	17210	13768
0	41327	17220	13777
0	41328	17220	13776
0	41351	17230	13785
0	41352	17230	13784
0	41375	17240	13793
0	41376	17240	13792
0	41399	17250	13801
0	41400	17250	13800
0	41423	17260	13809
0	41424	17260	13808
0	41447	17270	13817
0	41448	17270	13816
0	41471	17280	13825
0	41472	17280	13824
0	41495	17290	13833
0	41496	17290	13832
0	41519	17300	13841
0	41520	17300	13840
0	41543	17310	13849
0	41544	17310	13848
0	41567	17320	13857
0	41568	17320	13856
0	41591	17330	13865
0	41592	17330	13864
0	41615	17340	13873
0	41616	17340	13872
0	41639	17350	13881
0	41640	17350	13880
0	41663	17360	13889
0	41664	17360	13888
0	41687	17370	13897
0	41688	17370	13896
0	41711	17380	13905
0	41712	17380	13904
0	41735	17390	13913
0	41736	17390	13912
0	41759	17400	13921
0	41760	17400	13920
0	41783	17410	13929
0	41784	17410	13928
0	41807	17420	13937
0	41808	17420	13936
0	41831	17430	13945
0	41832	17430	13944
0	41855	17440	13953
0	41856	17440	13952
0	41879	17450	13961
0	41880	17450	13960
0	41903	17460	13969
0	41904	17460	13968
0	41927	17470	13977
0	41928	17470	13976
0	41951	17480	13985
0	41952	17480	13984
0	41975	17490	13993
0	41976	17490	13992
0	41999	17500	14001
0	42000	17500	14000
0	42023	17510	14009
0	42024	17510	14008
0	42047	17520	14017
0	42048	17520	14016
0	42071	17530	14025
0	42072	17530	14024
0	42095	17540	14033
0	42096	17540	14032
0	42119	17550	14041
0	42120	17550	14040
0	42143	17560	14049
0	42144	17560	14048
0	42167	17570	14057
0	42168	17570	14056
0	42191	17580	14065
0	42192	17580	14064
0	42215	17590	14073
0	42216	17590	14072
0	42239	17600	14081
0	42240	17600	14080
0	42263	17610	14089
0	42264	17610	14088
0	42287	17620	14097
0	42288	17620	14096
0	42311	17630	14105
0	42312	17630	14104
0	42335	17640	14113
0	42336	17640	14112
0	42359	17650	14121
0	42360	17650	14120
0	42383	17660	14129
0	42384	17660	14128
0	42407	17670	14137
0	42408	17670	14136
0	42431	17680	14145
0	42432	17680	14144
0	42455	17690	14153
0	42456	17690	14152
0	42479	17700	14161
0	42480	17700	14160
0	42503	17710	14169
0	42504	17710	14168
0	42527	17720	14177
0	42528	17720	14176
0	42551	17730	14185
0	42552	17730	14184
0	42575	17740	14193
0	42576	17740	14192
0	42599	17750	14201
0	42600	17750	14200
0	42623	17760	14209
0	42624	17760	14208
0	42647	17770	14217
0	42648	17770	14216
0	42671	17780	14225
0	42672	17780	14224
0	42695	17790	14233
0	42696	17790	14232
0	42719	17800	14241
0	42720	17800	14240
0	42743	17810	14249
0	42744	17810	14248
0	42767	17820	14257
0	42768	17820	14256
0	42791	17830	14265
0	42792	17830	14264
0	42815	17840	14273
0	42816	17840	14272
0	42839	17850	14281
0	42840	17850	14280
0	42863	17860	14289
0	42864	17860	14288
0	42887	17870	14297
0	42888	17870	14296
0	42911	17880	14305
0	42912	17880	14304
0	42935	17890	14313
0	42936	17890	14312
0	42959	17900	14321
0	42960	17900	14320
0	42983	17910	14329
0	42984	17910	14328
0	43007	17920	14337
0	43008	17920	14336
0	43031	17930	14345
0	43032	17930	14344
0	43055	17940	14353
0	43056	17940	14352
0	43079	17950	14361
0	43080	17950	14360
0	43103	17960	14369
0	43104	17960	14368
0	43127	17970	14377
0	43128	17970	14376
0	43151	17980	14385
0	43152	17980	14384
0	43175	17990	14393
0	43176	17990	14392
0	43199	18000	14401
0	43200	18000	14400
0	43223	18010	14409
0	43224	18010	14408
0	43247	18020	14417
0	43248	18020	14416
0	43271	18030	14425
0	43272	18030	14424
0	43295	18040	14433
0	43296	18040	14432
0	43319	18050	14441
0	43320	18050	14440
0	43343	18060	14449
0	43344	18060	14448
0	43367	18070	14457
0	43368	18070	14456
0	43391	18080	14465
0	43392	18080	14464
0	43415	18090	14473
0	43416	18090	14472
0	43439	18100	14481
0	43440	18100	14480
0	43463	18110	14489
0	43464	18110	14488
0	43487	18120	14497
0	43488	18120	14496
0	43511	18130	14505
0	43512	18130	14504
0	43535	18140	14513
0	43536	18140	14512
0	43559	18150	14521
0	43560	18150	14520
0	43583	18160	14529
0	43584	18160	14528
0	43607	18170	14537
0	43608	18170	14536
0	43631	18180	14545
0	43632	18180	14544
0	43655	18190	14553
0	43656	18190	14552
0	43679	18200	14561
0	43680	18200	14560
0	43703	18210	14569
0	43704	18210	14568
0	43727	18220	14577
0	43728	18220	14576
0	43751	18230	14585
0	43752	18230	14584
0	43775	18240	14593
0	43776	18240	14592
0	43799	18250	14601
0	43800	18250	14600
0	43823	18260	14609
0	43824	18260	14608
0	43847	18270	14617
0	43848	18270	14616
0	43871	18280	14625
0	43872	18280	14624
0	43895	18290	14633
0	43896	18290	14632
0	43919	18300	14641
0	43920	18300	14640
0	43943	18310	14649
0	43944	18310	14648
0	43967	18320	14657
0	43968	18320	14656
0	43991	18330	14665
0	43992	18330	14664
0	44015	18340	14673
0	44016	18340	14672
0	44039	18350	14681
0	44040	18350	14680
0	44063	18360	14689
0	44064	18360	14688
0	44087	18370	14697
0	44088	18370	14696
0	44111	18380	14705
0	44112	18380	14704
0	44135	18390	14713
0	44136	18390	14712
0	44159	18400	14721
0	44160	18400	14720
0	44183	18410	14729
0	44184	18410	14728
0	44207	18420	14737
0	44208	18420	14736
0	44231	18430	14745
0	44232	18430	14744
0	44255	18440	14753
0	44256	18440	14752
0	44279	18450	14761
0	44280	18450	14760
0	44303	18460	14769
0	44304	18460	14768
0	44327	18470	14777
0	44328	18470	14776
0	44351	18480	14785
0	44352	18480	14784
0	44375	18490	14793
0	44376	18490	14792
0	44399	18500	14801
0	44400	18500	14800
0	44423	18510	14809
0	44424	18510	14808
0	44447	18520	14817
0	44448	18520	14816
0	44471	18530	14825
0	44472	18530	14824
0	44495	18540	14833
0	44496	18540	14832
0	44519	18550	14841
0	44520	18550	14840
0	44543	18560	14849
0	44544	18560	14848
0	44567	18570	14857
0	44568	18570	14856
0	44591	18580	14865
0	44592	18580	14864
0	44615	18590	14873
0	44616	18590	14872
0	44639	18600	14881
0	44640	18600	14880
0	44663	18610	14889
0	44664	18610	14888
0	44687	18620	14897
0	44688	18620	14896
0	44711	18630	14905
0	44712	18630	14904
0	44735	18640	14913
0	44736	18640	14912
0	44759	18650	14921
0	44760	18650	14920
0	44783	18660	14929
0	44784	18660	14928
0	44807	18670	14937
0	44808	18670	14936
0	44831	18680	14945
0	44832	18680	14944
0	44855	18690	14953
0	44856	18690	14952
0	44879	18700	14961
0	44880	18700	14960
0	44903	18710	14969
0	44904	18710	14968
0	44927	18720	14977
0	44928	18720	14976
0	44951	18730	14985
0	44952	18730	14984
0	44975	18740	14993
0	44976	18740	14992
0	44999	18750	15001
0	45000	18750	15000
0	45023	18760	15009
0	45024	18760	15008
0	45047	18770	15017
0	45048	18770	15016
0	45071	18780	15025
0	45072	18780	15024
0	45095	18790	15033
0	45096	18790	15032
0	45119	18800	15041
0	45120	18800	15040
0	45143	18810	15049
0	45144	18810	15048
0	45167	18820	15057
0	45168	18820	15056
0	45191	18830	15065
0	45192	18830	15064
0	45215	18840	15073
0	45216	18840	15072
0	45239	18850	15081
0	45240	18850	15080
0	45263	18860	15089
0	45264	18860	15088
0	45287	18870	15097
0	45288	18870	15096
0	45311	18880	15105
0	45312	18880	15104
0	45335	18890	15113
0	45336	18890	15112
0	45359	18900	15121
0	45360	18900	15120
0	45383	18910	15129
0	45384	18910	15128
0	45407	18920	15137
0	45408	18920	15136
0	45431	18930	15145
0	45432	18930	15144
0	45455	18940	15153
0	45456	18940	15152
0	45479	18950	15161
0	45480	18950	15160
0	45503	18960	15169
0	45504	18960	15168
0	45527	18970	15177
0	45528	18970	15176
0	45551	18980	15185
0	45552	18980	15184
0	45575	18990	15193
0	45576	18990	15192
0	45599	19000	15201
0	45600	19000	15200
0	45623	19010	15209
0	45624	19010	15208
0	45647	19020	15217
0	45648	19020	15216
0	45671	19030	15225
0	45672	19030	15224
0	45695	19040	15233
0	45696	19040	15232
0	45719	19050	15241
0	45720	19050	15240
0	45743	19060	15249
0	45744	19060	15248
0	45767	19070	15257
0	45768	19070	15256
0	45791	19080	15265
0	45792	19080	15264
0	45815	19090	15273
0	45816	19090	15272
0	45839	19100	15281
0	45840	19100	15280
0	45863	19110	15289
0	45864	19110	15288
0	45887	19120	15297
0	45888	19120	15296
0	45911	19130	15305
0	45912	19130	15304
0	45935	19140	15313
0	45936	19140	15312
0	45959	19150	15321
0	45960	19150	15320
0	45983	19160	15329
0	45984	19160	15328
0	46007	19170	15337
0	46008	19170	15336
0	46031	19180	15345
0	46032	19180	15344
0	46055	19190	15353
0	46056	19190	15352
0	46079	19200	15361
0	46080	19200	15360
0	46103	19210	15369
0	46104	19210	15368
0	46127	19220	15377
0	46128	19220	15376
0	46151	19230	15385
0	46152	19230	15384
0	46175	19240	15393
0	46176	19240	15392
0	46199	19250	15401
0	46200	19250	15400
0	46223	19260	15409
0	46224	19260	15408
0	46247	19270	15417
0	46248	19270	15416
0	46271	19280	15425
0	46272	19280	15424
0	46295	19290	15433
0	46296	19290	15432
0	46319	19300	15441
0	46320	19300	15440
0	46343	19310	15449
0	46344	19310	15448
0	46367	19320	15457
0	46368	19320	15456
0	46391	19330	15465
0	46392	19330	15464
0	46415	19340	15473
0	46416	19340	15472
0	46439	19350	15481
0	46440	19350	15480
0	46463	19360	15489
0	46464	19360	15488
0	46487	19370	15497
0	46488	19370	15496
0	46511	19380	15505
0	46512	19380	15504
0	46535	19390	15513
0	46536	19390	15512
0	46559	19400	15521
0	46560	19400	15520
0	46583	19410	15529
0	46584	19410	15528
0	46607	19420	15537
0	46608	19420	15536
0	46631	19430	15545
0	46632	19430	15544
0	46655	19440	15553
0	46656	19440	15552
0	46679	19450	15561
0	46680	19450	15560
0	46703	19460	15569
0	46704	19460	15568
0	46727	19470	15577
0	46728	19470	15576
0	46751	19480	15585
0	46752	19480	15584
0	46775	19490	15593
0	46776	19490	15592
0	46799	19500	15601
0	46800	19500	15600
0	46823	19510	15609
0	46824	19510	15608
0	46847	19520	15617
0	46848	19520	15616
0	46871	19530	15625
0	46872	19530	15624
0	46895	19540	15633
0	46896	19540	15632
0	46919	19550	15641
0	46920	19550	15640
0	46943	19560	15649
0	46944	19560	15648
0	46967	19570	15657
0	46968	19570	15656
0	46991	19580	15665
0	46992	19580	15664
0	47015	19590	15673
0	47016	19590	15672
0	47039	19600	15681
0	47040	19600	15680
0	47063	19610	15689
0	47064	19610	15688
0	47087	19620	15697
0	47088	19620	15696
0	47111	19630	15705
0	47112	19630	15704
0	47135	19640	15713
0	47136	19640	15712
0	47159	19650	15721
0	47160	19650	15720
0	47183	19660	15729
0	47184	19660	15728
0	47207	19670	15737
0	47208	19670	15736
0	47231	19680	15745
0	47232	19680	15744
0	47255	19690	15753
0	47256	19690	15752
0	47279	19700	15761
0	47280	19700	15760
0	47303	19710	15769
0	47304	19710	15768
0	47327	19720	15777
0	47328	19720	15776
0	47351	19730	15785
0	47352	19730	15784
0	47375	19740	15793
0	47376	19740	15792
0	47399	19750	15801
0	47400	19750	15800
0	47423	19760	15809
0	47424	19760	15808
0	47447	19770	15817
0	47448	19770	15816
0	47471	19780	15825
0	47472	19780	15824
0	47495	19790	15833
0	47496	19790	15832
0	47519	19800	15841
0	47520	19800	15840
0	47543	19810	15849
0	47544	19810	15848
0	47567	19820	15857
0	47568	19820	15856
0	47591	19830	15865
0	47592	19830	15864
0	47615	19840	15873
0	47616	19840	15872
0	47639	19850	15881
0	47640	19850	15880
0	47663	19860	15889
0	47664	19860	15888
0	47687	19870	15897
0	47688	19870	15896
0	47711	19880	15905
0	47712	19880	15904
0	47735	19890	15913
0	47736	19890	15912
0	47759	19900	15921
0	47760	19900	15920
0	47783	19910	15929
0	47784	19910	15928
0	47807	19920	15937
0	47808	19920	15936
0	47831	19930	15945
0	47832	19930	15944
0	47855	19940	15953
0	47856	19940	15952
0	47879	19950	15961
0	47880	19950	15960
0	47903	19960	15969
0	47904	19960	15968
0	47927	19970	15977
0	47928	19970	15976
0	47951	19980	15985
0	47952	19980	15984
0	47975	19990	15993
0	47976	19990	15992
0	47999	20000	16001
0	48000	20000	16000
0	48023	20010	16009
0	48024	20010	16008
0	48047	20020	16017
0	48048	20020	16016
0	48071	20030	16025
0	48072	20030	16024
0	48095	20040	16033
0	48096	20040	16032
0	48119	20050	16041
0	48120	20050	16040
0	48143	20060	16049
0	48144	20060	16048
0	48167	20070	16057
0	48168	20070	16056
0	48191	20080	16065
0	48192	20080	16064
0	48215	20090	16073
0	48216	20090	16072
0	48239	20100	16081
0	48240	20100	16080
0	48263	20110	16089
0	48264	20110	16088
0	48287	20120	16097
0	48288	20120	16096
0	48311	20130	16105
0	48312	20130	16104
0	48335	20140	16113
0	48336	20140	16112
0	48359	20150	16121
0	48360	20150	16120
0	48383	20160	16129
0	48384	20160	16128
0	48407	20170	16137
0	48408	20170	16136
0	48431	20180	16145
0	48432	20180	16144
0	48455	20190	16153
0	48456	20190	16152
0	48479	20200	16161
0	48480	20200	16160
0	48503	20210	16169
0	48504	20210	16168
0	48527	20220	16177
0	48528	20220	16176
0	48551	20230	16185
0	48552	20230	16184
0	48575	20240	16193
0	48576	20240	16192
0	48599	20250	16201
0	48600	20250	16200
0	48623	20260	16209
0	48624	20260	16208
0	48647	20270	16217
0	48648	20270	16216
0	48671	20280	16225
0	48672	20280	16224
0	48695	20290	16233
0	48696	20290	16232
0	48719	20300	16241
0	48720	20300	16240
0	48743	20310	16249
0	48744	20310	16248
0	48767	20320	16257
0	48768	20320	16256
0	48791	20330	16265
0	48792	20330	16264
0	48815	20340	16273
0	48816	20340	16272
0	48839	20350	16281
0	48840	20350	16280
0	48863	20360	16289
0	48864	20360	16288
0	48887	20370	16297
0	48888	20370	16296
0	48911	20380	16305
0	48912	20380	16304
0	48935	20390	16313
0	48936	20390	16312
0	48959	20400	16321
0	48960	20400	16320
0	48983	20410	16329
0	48984	20410	16328
0	49007	20420	16337
0	49008	20420	16336
0	49031	20430	16345
0	49032	20430	16344
0	49055	20440	16353
0	49056	20440	16352
0	49079	20450	16361
0	49080	20450	16360
0	49103	20460	16369
0	49104	20460	16368
0	49127	20470	16377
0	49128	20470	16376
0	49151	20480	16385
0	49152	20480	16384
0	49175	20490	16393
0	49176	20490	16392
0	49199	20500	16401
0	49200	20500	16400
0	49223	20510	16409
0	49224	20510	16408
0	49247	20520	16417
0	49248	20520	16416
0	49271	20530	16425
0	49272	20530	16424
0	49295	20540	16433
0	49296	20540	16432
0	49319	20550	16441
0	49320	20550	16440
0	49343	20560	16449
0	49344	20560	16448
0	49367	20570	16457
0	49368	20570	16456
0	49391	20580	16465
0	49392	20580	16464
0	49415	20590	16473
0	49416	20590	16472
0	49439	20600	16481
0	49440	20600	16480
0	49463	20610	16489
0	49464	20610	16488
0	49487	20620	16497
0	49488	20620	16496
0	49511	20630	16505
0	49512	20630	16504
0	49535	20640	16513
0	49536	20640	16512
0	49559	20650	16521
0	49560	20650	16520
0	49583	20660	16529
0	49584	20660	16528
0	49607	20670	16537
0	49608	20670	16536
0	49631	20680	16545
0	49632	20680	16544
0	49655	20690	16553
0	49656	20690	16552
0	49679	20700	16561
0	49680	20700	16560
0	49703	20710	16569
0	49704	20710	16568
0	49727	20720	16577
0	49728	20720	16576
0	49751	20730	16585
0	49752	20730	16584
0	49775	20740	16593
0	49776	20740	16592
0	49799	20750	16601
0	49800	20750	16600
0	49823	20760	16609
0	49824	20760	16608
0	49847	20770	16617
0	49848	20770	16616
0	49871	20780	16625
0	49872	20780	16624
0	49895	20790	16633
0	49896	20790	16632
0	49919	20800	16641
0	49920	20800	16640
0	49943	20810	16649
0	49944	20810	16648
0	49967	20820	16657
0	49968	20820	16656
0	49991	20830	16665
0	49992	20830	16664
0	50015	20840	16673
0	50016	20840	16672
0	50039	20850	16681
0	50040	20850	16680
0	50063	20860	16689
0	50064	20860	16688
0	50087	20870	16697
0	50088	20870	16696
0	50111	20880	16705
0	50112	20880	16704
0	50135	20890	16713
0	50136	20890	16712
0	50159	20900	16721
0	50160	20900	16720
0	50183	20910	16729
0	50184	20910	16728
0	50207	20920	16737
0	50208	20920	16736
0	50231	20930	16745
0	50232	20930	16744
0	50255	20940	16753
0	50256	20940	16752
0	50279	20950	16761
0	50280	20950	16760
0	50303	20960	16769
0	50304	20960	16768
0	50327	20970	16777
0	50328	20970	16776
0	50351	20980	16785
0	50352	20980	16784
0	50375	20990	16793
0	50376	20990	16792
0	50399	21000	16801
0	50400	21000	16800
0	50423	21010	16809
0	50424	21010	16808
0	50447	21020	16817
0	50448	21020	16816
0	50471	21030	16825
0	50472	21030	16824
0	50495	21040	16833
0	50496	21040	16832
0	50519	21050	16841
0	50520	21050	16840
0	50543	21060	16849
0	50544	21060	16848
0	50567	21070	16857
0	50568	21070	16856
0	50591	21080	16865
0	50592	21080	16864
0	50615	21090	16873
0	50616	21090	16872
0	50639	21100	16881
0	50640	21100	16880
0	50663	21110	16889
0	50664	21110	16888
0	50687	21120	16897
0	50688	21120	16896
0	50711	21130	16905
0	50712	21130	16904
0	50735	21140	16913
0	50736	21140	16912
0	50759	21150	16921
0	50760	21150	16920
0	50783	21160	16929
0	50784	21160	16928
0	50807	21170	16937
0	50808	21170	16936
0	50831	21180	16945
0	50832	21180	16944
0	50855	21190	16953
0	50856	21190	16952
0	50879	21200	16961
0	50880	21200	16960
0	50903	21210	16969
0	50904	21210	16968
0	50927	21220	16977
0	50928	21220	16976
0	50951	21230	16985
0	50952	21230	16984
0	50975	21240	16993
0	50976	21240	16992
0	50999	21250	17001
0	51000	21250	17000
0	51023	21260	17009
0	51024	21260	17008
0	51047	21270	17017
0	51048	21270	17016
0	51071	21280	17025
0	51072	21280	17024
0	51095	21290	17033
0	51096	21290	17032
0	51119	21300	17041
0	51120	21300	17040
0	51143	21310	17049
0	51144	21310	17048
0	51167	21320	17057
0	51168	21320	17056
0	51191	21330	17065
0	51192	21330	17064
0	51215	21340	17073
0	51216	21340	17072
[...]
0	158831	66180	52945
0	158832	66180	52944
0	158855	66190	52953
0	158856	66190	52952
0	158879	66200	52961
0	158880	66200	52960
0	158903	66210	52969
0	158904	66210	52968
0	158927	66220	52977
0	158928	66220	52976
0	158951	66230	52985
0	158952	66230	52984
0	158975	66240	52993
0	158976	66240	52992
0	158999	66250	53001
0	159000	66250	53000
0	159023	66260	53009
0	159024	66260	53008
0	159047	66270	53017
0	159048	66270	53016
0	159071	66280	53025
0	159072	66280	53024
0	159095	66290	53033
0	159096	66290	53032
0	159119	66300	53041
0	159120	66300	53040
0	159143	66310	53049
0	159144	66310	53048
0	159167	66320	53057
0	159168	66320	53056
0	159191	66330	53065
0	159192	66330	53064
0	159215	66340	53073
0	159216	66340	53072
0	159239	66350	53081
0	159240	66350	53080
0	159263	66360	53089
0	159264	66360	53088
0	159287	66370	53097
0	159288	66370	53096
0	159311	66380	53105
0	159312	66380	53104
0	159335	66390	53113
0	159336	66390	53112
0	159359	66400	53121
0	159360	66400	53120
0	159383	66410	53129
0	159384	66410	53128
0	159407	66420	53137
0	159408	66420	53136
0	159431	66430	53145
0	159432	66430	53144
0	159455	66440	53153
0	159456	66440	53152
0	159479	66450	53161
0	159480	66450	53160
0	159503	66460	53169
0	159504	66460	53168
0	159527	66470	53177
0	159528	66470	53176
0	159551	66480	53185
0	159552	66480	53184
0	159575	66490	53193
0	159576	66490	53192
0	159599	66500	53201
0	159600	66500	53200
0	159623	66510	53209
0	159624	66510	53208
0	159647	66520	53217
0	159648	66520	53216
0	159671	66530	53225
0	159672	66530	53224
0	159695	66540	53233
0	159696	66540	53232
0	159719	66550	53241
0	159720	66550	53240
0	159743	66560	53249
0	159744	66560	53248
0	159767	66570	53257
0	159768	66570	53256
0	159791	66580	53265
0	159792	66580	53264
0	159815	66590	53273
0	159816	66590	53272
0	159839	66600	53281
0	159840	66600	53280
0	159863	66610	53289
0	159864	66610	53288
0	159887	66620	53297
0	159888	66620	53296
0	159911	66630	53305
0	159912	66630	53304
0	159935	66640	53313
0	159936	66640	53312
0	159959	66650	53321
0	159960	66650	53320
0	159983	66660	53329
0	159984	66660	53328
0	160007	66670	53337
0	160008	66670	53336
0	160031	66680	53345
0	160032	66680	53344
0	160055	66690	53353
0	160056	66690	53352
0	160079	66700	53361
0	160080	66700	53360
0	160103	66710	53369
0	160104	66710	53368
0	160127	66720	53377
0	160128	66720	53376
0	160151	66730	53385
0	160152	66730	53384
0	160175	66740	53393
0	160176	66740	53392
0	160199	66750	53401
0	160200	66750	53400
0	160223	66760	53409
0	160224	66760	53408
0	160247	66770	53417
0	160248	66770	53416
0	160271	66780	53425
0	160272	66780	53424
0	160295	66790	53433
0	160296	66790	53432
0	160319	66800	53441
0	160320	66800	53440
0	160343	66810	53449
0	160344	66810	53448
0	160367	66820	53457
0	160368	66820	53456
0	160391	66830	53465
0	160392	66830	53464
0	160415	66840	53473
0	160416	66840	53472
0	160439	66850	53481
0	160440	66850	53480
0	160463	66860	53489
0	160464	66860	53488
0	160487	66870	53497
0	160488	66870	53496
0	160511	66880	53505
0	160512	66880	53504
0	160535	66890	53513
0	160536	66890	53512
0	160559	66900	53521
0	160560	66900	53520
0	160583	66910	53529
0	160584	66910	53528
0	160607	66920	53537
0	160608	66920	53536
0	160631	66930	53545
0	160632	66930	53544
0	160655	66940	53553
0	160656	66940	53552
0	160679	66950	53561
0	160680	66950	53560
0	160703	66960	53569
0	160704	66960	53568
0	160727	66970	53577
0	160728	66970	53576
0	160751	66980	53585
0	160752	66980	53584
0	160775	66990	53593
0	160776	66990	53592
0	160799	67000	53601
0	160800	67000	53600
0	160823	67010	53609
0	160824	67010	53608
0	160847	67020	53617
0	160848	67020	53616
0	160871	67030	53625
0	160872	67030	53624
0	160895	67040	53633
0	160896	67040	53632
0	160919	67050	53641
0	160920	67050	53640
0	160943	67060	53649
0	160944	67060	53648
0	160967	67070	53657
0	160968	67070	53656
0	160991	67080	53665
0	160992	67080	53664
0	161015	67090	53673
0	161016	67090	53672
0	161039	67100	53681
0	161040	67100	53680
0	161063	67110	53689
0	161064	67110	53688
0	161087	67120	53697
0	161088	67120	53696
0	161111	67130	53705
0	161112	67130	53704
0	161135	67140	53713
0	161136	67140	53712
0	161159	67150	53721
0	161160	67150	53720
0	161183	67160	53729
0	161184	67160	53728
0	161207	67170	53737
0	161208	67170	53736
0	161231	67180	53745
0	161232	67180	53744
0	161255	67190	53753
0	161256	67190	53752
0	161279	67200	53761
0	161280	67200	53760
0	161303	67210	53769
0	161304	67210	53768
0	161327	67220	53777
0	161328	67220	53776
0	161351	67230	53785
0	161352	67230	53784
0	161375	67240	53793
0	161376	67240	53792
0	161399	67250	53801
0	161400	67250	53800
0	161423	67260	53809
0	161424	67260	53808
0	161447	67270	53817
0	161448	67270	53816
0	161471	67280	53825
0	161472	67280	53824
0	161495	67290	53833
0	161496	67290	53832
0	161519	67300	53841
0	161520	67300	53840
0	161543	67310	53849
0	161544	67310	53848
0	161567	67320	53857
0	161568	67320	53856
0	161591	67330	53865
0	161592	67330	53864
0	161615	67340	53873
0	161616	67340	53872
0	161639	67350	53881
0	161640	67350	53880
0	161663	67360	53889
0	161664	67360	53888
0	161687	67370	53897
0	161688	67370	53896
0	161711	67380	53905
0	161712	67380	53904
0	161735	67390	53913
0	161736	67390	53912
0	161759	67400	53921
0	161760	67400	53920
0	161783	67410	53929
0	161784	67410	53928
0	161807	67420	53937
0	161808	67420	53936
0	161831	67430	53945
0	161832	67430	53944
0	161855	67440	53953
0	161856	67440	53952
0	161879	67450	53961
0	161880	67450	53960
0	161903	67460	53969
0	161904	67460	53968
0	161927	67470	53977
0	161928	67470	53976
0	161951	67480	53985
0	161952	67480	53984
0	161975	67490	53993
0	161976	67490	53992
0	161999	67500	54001
0	162000	67500	54000
0	162023	67510	54009
0	162024	67510	54008
0	162047	67520	54017
0	162048	67520	54016
0	162071	67530	54025
0	162072	67530	54024
0	162095	67540	54033
0	162096	67540	54032
0	162119	67550	54041
0	162120	67550	54040
0	162143	67560	54049
0	162144	67560	54048
0	162167	67570	54057
0	162168	67570	54056
0	162191	67580	54065
0	162192	67580	54064
0	162215	67590	54073
0	162216	67590	54072
0	162239	67600	54081
0	162240	67600	54080
0	162263	67610	54089
0	162264	67610	54088
0	162287	67620	54097
0	162288	67620	54096
0	162311	67630	54105
0	162312	67630	54104
0	162335	67640	54113
0	162336	67640	54112
0	162359	67650	54121
0	162360	67650	54120
0	162383	67660	54129
0	162384	67660	54128
0	162407	67670	54137
0	162408	67670	54136
0	162431	67680	54145
0	162432	67680	54144
0	162455	67690	54153
0	162456	67690	54152
0	162479	67700	54161
0	162480	67700	54160
0	162503	67710	54169
0	162504	67710	54168
0	162527	67720	54177
0	162528	67720	54176
0	162551	67730	54185
0	162552	67730	54184
0	162575	67740	54193
0	162576	67740	54192
0	162599	67750	54201
0	162600	67750	54200
0	162623	67760	54209
0	162624	67760	54208
0	162647	67770	54217
0	162648	67770	54216
0	162671	67780	54225
0	162672	67780	54224
0	162695	67790	54233
0	162696	67790	54232
0	162719	67800	54241
0	162720	67800	54240
0	162743	67810	54249
0	162744	67810	54248
0	162767	67820	54257
0	162768	67820	54256
0	162791	67830	54265
0	162792	67830	54264
0	162815	67840	54273
0	162816	67840	54272
0	162839	67850	54281
0	162840	67850	54280
0	162863	67860	54289
0	162864	67860	54288
0	162887	67870	54297
0	162888	67870	54296
0	162911	67880	54305
0	162912	67880	54304
0	162935	67890	54313
0	162936	67890	54312
0	162959	67900	54321
0	162960	67900	54320
0	162983	67910	54329
0	162984	67910	54328
0	163007	67920	54337
0	163008	67920	54336
0	163031	67930	54345
0	163032	67930	54344
0	163055	67940	54353
0	163056	67940	54352
0	163079	67950	54361
0	163080	67950	54360
0	163103	67960	54369
0	163104	67960	54368
0	163127	67970	54377
0	163128	67970	54376
0	163151	67980	54385
0	163152	67980	54384
0	163175	67990	54393
0	163176	67990	54392
0	163199	68000	54401
0	163200	68000	54400
0	163223	68010	54409
0	163224	68010	54408
0	163247	68020	54417
0	163248	68020	54416
0	163271	68030	54425
0	163272	68030	54424
0	163295	68040	54433
0	163296	68040	54432
0	163319	68050	54441
0	163320	68050	54440
0	163343	68060	54449
0	163344	68060	54448
0	163367	68070	54457
0	163368	68070	54456
0	163391	68080	54465
0	163392	68080	54464
0	163415	68090	54473
0	163416	68090	54472
0	163439	68100	54481
0	163440	68100	54480
0	163463	68110	54489
0	163464	68110	54488
0	163487	68120	54497
0	163488	68120	54496
0	163511	68130	54505
0	163512	68130	54504
0	163535	68140	54513
0	163536	68140	54512
0	163559	68150	54521
0	163560	68150	54520
0	163583	68160	54529
0	163584	68160	54528
0	163607	68170	54537
0	163608	68170	54536
0	163631	68180	54545
0	163632	68180	54544
0	163655	68190	54553
0	163656	68190	54552
0	163679	68200	54561
0	163680	68200	54560
0	163703	68210	54569
0	163704	68210	54568
0	163727	68220	54577
0	163728	68220	54576
0	163751	68230	54585
0	163752	68230	54584
0	163775	68240	54593
0	163776	68240	54592
0	163799	68250	54601
0	163800	68250	54600
0	163823	68260	54609
0	163824	68260	54608
0	163847	68270	54617
0	163848	68270	54616
0	163871	68280	54625
0	163872	68280	54624
0	163895	68290	54633
0	163896	68290	54632
0	163919	68300	54641
0	163920	68300	54640
0	163943	68310	54649
0	163944	68310	54648
0	163967	68320	54657
0	163968	68320	54656
0	163991	68330	54665
0	163992	68330	54664
0	164015	68340	54673
0	164016	68340	54672
0	164039	68350	54681
0	164040	68350	54680
0	164063	68360	54689
0	164064	68360	54688
0	164087	68370	54697
0	164088	68370	54696
0	164111	68380	54705
0	164112	68380	54704
0	164135	68390	54713
0	164136	68390	54712
0	164159	68400	54721
0	164160	68400	54720
0	164183	68410	54729
0	164184	68410	54728
0	164207	68420	54737
0	164208	68420	54736
0	164231	68430	54745
0	164232	68430	54744
0	164255	68440	54753
0	164256	68440	54752
0	164279	68450	54761
0	164280	68450	54760
0	164303	68460	54769
0	164304	68460	54768
0	164327	68470	54777
0	164328	68470	54776
0	164351	68480	54785
0	164352	68480	54784
0	164375	68490	54793
0	164376	68490	54792
0	164399	68500	54801
0	164400	68500	54800
0	164423	68510	54809
0	164424	68510	54808
0	164447	68520	54817
0	164448	68520	54816
0	164471	68530	54825
0	164472	68530	54824
0	164495	68540	54833
0	164496	68540	54832
0	164519	68550	54841
0	164520	68550	54840
0	164543	68560	54849
0	164544	68560	54848
0	164567	68570	54857
0	164568	68570	54856
0	164591	68580	54865
0	164592	68580	54864
0	164615	68590	54873
0	164616	68590	54872
0	164639	68600	54881
0	164640	68600	54880
0	164663	68610	54889
0	164664	68610	54888
0	164687	68620	54897
0	164688	68620	54896
0	164711	68630	54905
0	164712	68630	54904
0	164735	68640	54913
0	164736	68640	54912
0	164759	68650	54921
0	164760	68650	54920
0	164783	68660	54929
0	164784	68660	54928
0	164807	68670	54937
0	164808	68670	54936
0	164831	68680	54945
0	164832	68680	54944
0	164855	68690	54953
0	164856	68690	54952
0	164879	68700	54961
0	164880	68700	54960
0	164903	68710	54969
0	164904	68710	54968
0	164927	68720	54977
0	164928	68720	54976
0	164951	68730	54985
0	164952	68730	54984
0	164975	68740	54993
0	164976	68740	54992
0	164999	68750	55001
0	165000	68750	55000
0	165023	68760	55009
0	165024	68760	55008
0	165047	68770	55017
0	165048	68770	55016
0	165071	68780	55025
0	165072	68780	55024
0	165095	68790	55033
0	165096	68790	55032
0	165119	68800	55041
0	165120	68800	55040
0	165143	68810	55049
0	165144	68810	55048
0	165167	68820	55057
0	165168	68820	55056
0	165191	68830	55065
0	165192	68830	55064
0	165215	68840	55073
0	165216	68840	55072
0	165239	68850	55081
0	165240	68850	55080
0	165263	68860	55089
0	165264	68860	55088
0	165287	68870	55097
0	165288	68870	55096
0	165311	68880	55105
0	165312	68880	55104
0	165335	68890	55113
0	165336	68890	55112
0	165359	68900	55121
0	165360	68900	55120
0	165383	68910	55129
0	165384	68910	55128
0	165407	68920	55137
0	165408	68920	55136
0	165431	68930	55145
0	165432	68930	55144
0	165455	68940	55153
0	165456	68940	55152
0	165479	68950	55161
0	165480	68950	55160
0	165503	68960	55169
0	165504	68960	55168
0	165527	68970	55177
0	165528	68970	55176
0	165551	68980	55185
0	165552	68980	55184
0	165575	68990	55193
0	165576	68990	55192
0	165599	69000	55201
0	165600	69000	55200
0	165623	69010	55209
0	165624	69010	55208
0	165647	69020	55217
0	165648	69020	55216
0	165671	69030	55225
0	165672	69030	55224
0	165695	69040	55233
0	165696	69040	55232
0	165719	69050	55241
0	165720	69050	55240
0	165743	69060	55249
0	165744	69060	55248
0	165767	69070	55257
0	165768	69070	55256
0	165791	69080	55265
0	165792	69080	55264
0	165815	69090	55273
0	165816	69090	55272
0	165839	69100	55281
0	165840	69100	55280
0	165863	69110	55289
0	165864	69110	55288
0	165887	69120	55297
0	165888	69120	55296
0	165911	69130	55305
0	165912	69130	55304
0	165935	69140	55313
0	165936	69140	55312
0	165959	69150	55321
0	165960	69150	55320
0	165983	69160	55329
0	165984	69160	55328
0	166007	69170	55337
0	166008	69170	55336
0	166031	69180	55345
0	166032	69180	55344
0	166055	69190	55353
0	166056	69190	55352
0	166079	69200	55361
0	166080	69200	55360
0	166103	69210	55369
0	166104	69210	55368
0	166127	69220	55377
0	166128	69220	55376
0	166151	69230	55385
0	166152	69230	55384
0	166175	69240	55393
0	166176	69240	55392
0	166199	69250	55401
0	166200	69250	55400
0	166223	69260	55409
0	166224	69260	55408
0	166247	69270	55417
0	166248	69270	55416
0	166271	69280	55425
0	166272	69280	55424
0	166295	69290	55433
0	166296	69290	55432
0	166319	69300	55441
0	166320	69300	55440
0	166343	69310	55449
0	166344	69310	55448
0	166367	69320	55457
0	166368	69320	55456
0	166391	69330	55465
0	166392	69330	55464
0	166415	69340	55473
0	166416	69340	55472
0	166439	69350	55481
0	166440	69350	55480
0	166463	69360	55489
0	166464	69360	55488
0	166487	69370	55497
0	166488	69370	55496
0	166511	69380	55505
0	166512	69380	55504
0	166535	69390	55513
0	166536	69390	55512
0	166559	69400	55521
0	166560	69400	55520
0	166583	69410	55529
0	166584	69410	55528
0	166607	69420	55537
0	166608	69420	55536
0	166631	69430	55545
0	166632	69430	55544
0	166655	69440	55553
0	166656	69440	55552
0	166679	69450	55561
0	166680	69450	55560
0	166703	69460	55569
0	166704	69460	55568
0	166727	69470	55577
0	166728	69470	55576
0	166751	69480	55585
0	166752	69480	55584
0	166775	69490	55593
0	166776	69490	55592
0	166799	69500	55601
0	166800	69500	55600
0	166823	69510	55609
0	166824	69510	55608
0	166847	69520	55617
0	166848	69520	55616
0	166871	69530	55625
0	166872	69530	55624
0	166895	69540	55633
0	166896	69540	55632
0	166919	69550	55641
0	166920	69550	55640
0	166943	69560	55649
0	166944	69560	55648
0	166967	69570	55657
0	166968	69570	55656
0	166991	69580	55665
0	166992	69580	55664
0	167015	69590	55673
0	167016	69590	55672
0	167039	69600	55681
0	167040	69600	55680
0	167063	69610	55689
0	167064	69610	55688
0	167087	69620	55697
0	167088	69620	55696
0	167111	69630	55705
0	167112	69630	55704
0	167135	69640	55713
0	167136	69640	55712
0	167159	69650	55721
0	167160	69650	55720
0	167183	69660	55729
0	167184	69660	55728
0	167207	69670	55737
0	167208	69670	55736
0	167231	69680	55745
0	167232	69680	55744
0	167255	69690	55753
0	167256	69690	55752
0	167279	69700	55761
0	167280	69700	55760
0	167303	69710	55769
0	167304	69710	55768
0	167327	69720	55777
0	167328	69720	55776
0	167351	69730	55785
0	167352	69730	55784
0	167375	69740	55793
0	167376	69740	55792
0	167399	69750	55801
0	167400	69750	55800
0	167423	69760	55809
0	167424	69760	55808
0	167447	69770	55817
0	167448	69770	55816
0	167471	69780	55825
0	167472	69780	55824
0	167495	69790	55833
0	167496	69790	55832
0	167519	69800	55841
0	167520	69800	55840
0	167543	69810	55849
0	167544	69810	55848
0	167567	69820	55857
0	167568	69820	55856
0	167591	69830	55865
0	167592	69830	55864
0	167615	69840	55873
0	167616	69840	55872
0	167639	69850	55881
0	167640	69850	55880
0	167663	69860	55889
0	167664	69860	55888
0	167687	69870	55897
0	167688	69870	55896
0	167711	69880	55905
0	167712	69880	55904
0	167735	69890	55913
0	167736	69890	55912
0	167759	69900	55921
0	167760	69900	55920
0	167783	69910	55929
0	167784	69910	55928
0	167807	69920	55937
0	167808	69920	55936
0	167831	69930	55945
0	167832	69930	55944
0	167855	69940	55953
0	167856	69940	55952
0	167879	69950	55961
0	167880	69950	55960
0	167903	69960	55969
0	167904	69960	55968
0	167927	69970	55977
0	167928	69970	55976
0	167951	69980	55985
0	167952	69980	55984
0	167975	69990	55993
0	167976	69990	55992
0	167999	70000	56001
0	168000	70000	56000
0	168023	70010	56009
0	168024	70010	56008
0	168047	70020	56017
0	168048	70020	56016
0	168071	70030	56025
0	168072	70030	56024
0	168095	70040	56033
0	168096	70040	56032
0	168119	70050	56041
0	168120	70050	56040
0	168143	70060	56049
0	168144	70060	56048
0	168167	70070	56057
0	168168	70070	56056
0	168191	70080	56065
0	168192	70080	56064
0	168215	70090	56073
0	168216	70090	56072
0	168239	70100	56081
0	168240	70100	56080
0	168263	70110	56089
0	168264	70110	56088
0	168287	70120	56097
0	168288	70120	56096
0	168311	70130	56105
0	168312	70130	56104
0	168335	70140	56113
0	168336	70140	56112
0	168359	70150	56121
0	168360	70150	56120
0	168383	70160	56129
0	168384	70160	56128
0	168407	70170	56137
0	168408	70170	56136
0	168431	70180	56145
0	168432	70180	56144
0	168455	70190	56153
0	168456	70190	56152
0	168479	70200	56161
0	168480	70200	56160
0	168503	70210	56169
0	168504	70210	56168
0	168527	70220	56177
0	168528	70220	56176
0	168551	70230	56185
0	168552	70230	56184
0	168575	70240	56193
0	168576	70240	56192
0	168599	70250	56201
0	168600	70250	56200
0	168623	70260	56209
0	168624	70260	56208
0	168647	70270	56217
0	168648	70270	56216
0	168671	70280	56225
0	168672	70280	56224
0	168695	70290	56233
0	168696	70290	56232
0	168719	70300	56241
0	168720	70300	56240
0	168743	70310	56249
0	168744	70310	56248
0	168767	70320	56257
0	168768	70320	56256
0	168791	70330	56265
0	168792	70330	56264
0	168815	70340	56273
0	168816	70340	56272
0	168839	70350	56281
0	168840	70350	56280
0	168863	70360	56289
0	168864	70360	56288
0	168887	70370	56297
0	168888	70370	56296
0	168911	70380	56305
0	168912	70380	56304
0	168935	70390	56313
0	168936	70390	56312
0	168959	70400	56321
0	168960	70400	56320
0	168983	70410	56329
0	168984	70410	56328
0	169007	70420	56337
0	169008	70420	56336
0	169031	70430	56345
0	169032	70430	56344
0	169055	70440	56353
0	169056	70440	56352
0	169079	70450	56361
0	169080	70450	56360
0	169103	70460	56369
0	169104	70460	56368
0	169127	70470	56377
0	169128	70470	56376
0	169151	70480	56385
0	169152	70480	56384
0	169175	70490	56393
0	169176	70490	56392
0	169199	70500	56401
0	169200	70500	56400
0	169223	70510	56409
0	169224	70510	56408
0	169247	70520	56417
0	169248	70520	56416
0	169271	70530	56425
0	169272	70530	56424
0	169295	70540	56433
0	169296	70540	56432
0	169319	70550	56441
0	169320	70550	56440
0	169343	70560	56449
0	169344	70560	56448
0	169367	70570	56457
0	169368	70570	56456
0	169391	70580	56465
0	169392	70580	56464
0	169415	70590	56473
0	169416	70590	56472
0	169439	70600	56481
0	169440	70600	56480
0	169463	70610	56489
0	169464	70610	56488
0	169487	70620	56497
0	169488	70620	56496
0	169511	70630	56505
0	169512	70630	56504
0	169535	70640	56513
0	169536	70640	56512
0	169559	70650	56521
0	169560	70650	56520
0	169583	70660	56529
0	169584	70660	56528
0	169607	70670	56537
0	169608	70670	56536
0	169631	70680	56545
0	169632	70680	56544
0	169655	70690	56553
0	169656	70690	56552
0	169679	70700	56561
0	169680	70700	56560
0	169703	70710	56569
0	169704	70710	56568
0	169727	70720	56577
0	169728	70720	56576
0	169751	70730	56585
0	169752	70730	56584
0	169775	70740	56593
0	169776	70740	56592
0	169799	70750	56601
0	169800	70750	56600
0	169823	70760	56609
0	169824	70760	56608
0	169847	70770	56617
0	169848	70770	56616
0	169871	70780	56625
0	169872	70780	56624
0	169895	70790	56633
0	169896	70790	56632
0	169919	70800	56641
0	169920	70800	56640
0	169943	70810	56649
0	169944	70810	56648
0	169967	70820	56657
0	169968	70820	56656
0	169991	70830	56665
0	169992	70830	56664
0	170015	70840	56673
0	170016	70840	56672
0	170039	70850	56681
0	170040	70850	56680
0	170063	70860	56689
0	170064	70860	56688
0	170087	70870	56697
0	170088	70870	56696
0	170111	70880	56705
0	170112	70880	56704
0	170135	70890	56713
0	170136	70890	56712
0	170159	70900	56721
0	170160	70900	56720
0	170183	70910	56729
0	170184	70910	56728
0	170207	70920	56737
0	170208	70920	56736
0	170231	70930	56745
0	170232	70930	56744

